
---------- Begin Simulation Statistics ----------
simSeconds                                  93.937875                       # Number of seconds simulated (Second)
simTicks                                 93937875311000                       # Number of ticks simulated (Tick)
finalTick                                93937875311000                       # Number of ticks from beginning of simulation (restored from checkpoints and never reset) (Tick)
simFreq                                  1000000000000                       # The number of ticks per simulated second ((Tick/Second))
hostSeconds                                 702357.88                       # Real time elapsed on the host (Second)
hostTickRate                                133746453                       # The number of ticks simulated per host second (ticks/s) ((Tick/Second))
hostMemory                                   18134212                       # Number of bytes of host memory used (Byte)
simInsts                                  37000841884                       # Number of instructions simulated (Count)
simOps                                    60078885530                       # Number of ops (including micro ops) simulated (Count)
hostInstRate                                    52681                       # Simulator instruction rate (inst/s) ((Count/Second))
hostOpRate                                      85539                       # Simulator op (including micro ops) rate (op/s) ((Count/Second))
system.bridge.power_state.pwrStateResidencyTicks::UNDEFINED 93937875311000                       # Cumulative time (in ticks) in various power states (Tick)
system.clk_domain.clock                          1000                       # Clock period in ticks (Tick)
system.cpu0.numCycles                      7798422403                       # Number of cpu cycles simulated (Cycle)
system.cpu0.numWorkItemsStarted                     0                       # Number of work items this cpu started (Count)
system.cpu0.numWorkItemsCompleted                   0                       # Number of work items this cpu completed (Count)
system.cpu0.committedInsts                12390410750                       # Number of instructions committed (Count)
system.cpu0.numVMExits                         167300                       # total number of KVM exits (Count)
system.cpu0.numVMHalfEntries                        0                       # number of KVM entries to finalize pending operations (Count)
system.cpu0.numExitSignal                        9763                       # exits due to signal delivery (Count)
system.cpu0.numMMIO                            157537                       # number of VM exits due to memory mapped IO (Count)
system.cpu0.numCoalescedMMIO                        0                       # number of coalesced memory mapped IO requests (Count)
system.cpu0.numIO                                   0                       # number of VM exits due to legacy IO (Count)
system.cpu0.numHalt                                 0                       # number of VM exits due to wait for interrupt instructions (Count)
system.cpu0.numInterrupts                           0                       # number of interrupts delivered (Count)
system.cpu0.numHypercalls                           0                       # number of hypercalls (Count)
system.cpu0.dcache.demandHits::switch_cpus0.data    630561589                       # number of demand (read+write) hits (Count)
system.cpu0.dcache.demandHits::total        630561589                       # number of demand (read+write) hits (Count)
system.cpu0.dcache.overallHits::switch_cpus0.data    630561592                       # number of overall hits (Count)
system.cpu0.dcache.overallHits::total       630561592                       # number of overall hits (Count)
system.cpu0.dcache.demandMisses::switch_cpus0.data    819868410                       # number of demand (read+write) misses (Count)
system.cpu0.dcache.demandMisses::total      819868410                       # number of demand (read+write) misses (Count)
system.cpu0.dcache.overallMisses::switch_cpus0.data    819868448                       # number of overall misses (Count)
system.cpu0.dcache.overallMisses::total     819868448                       # number of overall misses (Count)
system.cpu0.dcache.demandMissLatency::switch_cpus0.data 119181919705308                       # number of demand (read+write) miss ticks (Tick)
system.cpu0.dcache.demandMissLatency::total 119181919705308                       # number of demand (read+write) miss ticks (Tick)
system.cpu0.dcache.overallMissLatency::switch_cpus0.data 119181919705308                       # number of overall miss ticks (Tick)
system.cpu0.dcache.overallMissLatency::total 119181919705308                       # number of overall miss ticks (Tick)
system.cpu0.dcache.demandAccesses::switch_cpus0.data   1450429999                       # number of demand (read+write) accesses (Count)
system.cpu0.dcache.demandAccesses::total   1450429999                       # number of demand (read+write) accesses (Count)
system.cpu0.dcache.overallAccesses::switch_cpus0.data   1450430040                       # number of overall (read+write) accesses (Count)
system.cpu0.dcache.overallAccesses::total   1450430040                       # number of overall (read+write) accesses (Count)
system.cpu0.dcache.demandMissRate::switch_cpus0.data     0.565259                       # miss rate for demand accesses (Ratio)
system.cpu0.dcache.demandMissRate::total     0.565259                       # miss rate for demand accesses (Ratio)
system.cpu0.dcache.overallMissRate::switch_cpus0.data     0.565259                       # miss rate for overall accesses (Ratio)
system.cpu0.dcache.overallMissRate::total     0.565259                       # miss rate for overall accesses (Ratio)
system.cpu0.dcache.demandAvgMissLatency::switch_cpus0.data 145367.132398                       # average overall miss latency in ticks ((Tick/Count))
system.cpu0.dcache.demandAvgMissLatency::total 145367.132398                       # average overall miss latency in ticks ((Tick/Count))
system.cpu0.dcache.overallAvgMissLatency::switch_cpus0.data 145367.125660                       # average overall miss latency ((Tick/Count))
system.cpu0.dcache.overallAvgMissLatency::total 145367.125660                       # average overall miss latency ((Tick/Count))
system.cpu0.dcache.blockedCycles::no_mshrs   2647594223                       # number of cycles access was blocked (Cycle)
system.cpu0.dcache.blockedCycles::no_targets        12656                       # number of cycles access was blocked (Cycle)
system.cpu0.dcache.blockedCauses::no_mshrs     24953455                       # number of times access was blocked (Count)
system.cpu0.dcache.blockedCauses::no_targets           44                       # number of times access was blocked (Count)
system.cpu0.dcache.avgBlocked::no_mshrs    106.101308                       # average number of cycles each access was blocked ((Cycle/Count))
system.cpu0.dcache.avgBlocked::no_targets   287.636364                       # average number of cycles each access was blocked ((Cycle/Count))
system.cpu0.dcache.writebacks::writebacks     31320010                       # number of writebacks (Count)
system.cpu0.dcache.writebacks::total         31320010                       # number of writebacks (Count)
system.cpu0.dcache.demandMshrHits::switch_cpus0.data    691757627                       # number of demand (read+write) MSHR hits (Count)
system.cpu0.dcache.demandMshrHits::total    691757627                       # number of demand (read+write) MSHR hits (Count)
system.cpu0.dcache.overallMshrHits::switch_cpus0.data    691757627                       # number of overall MSHR hits (Count)
system.cpu0.dcache.overallMshrHits::total    691757627                       # number of overall MSHR hits (Count)
system.cpu0.dcache.demandMshrMisses::switch_cpus0.data    128110783                       # number of demand (read+write) MSHR misses (Count)
system.cpu0.dcache.demandMshrMisses::total    128110783                       # number of demand (read+write) MSHR misses (Count)
system.cpu0.dcache.overallMshrMisses::switch_cpus0.data    128110820                       # number of overall MSHR misses (Count)
system.cpu0.dcache.overallMshrMisses::total    128110820                       # number of overall MSHR misses (Count)
system.cpu0.dcache.overallMshrUncacheable::switch_cpus0.data        65811                       # number of overall MSHR uncacheable misses (Count)
system.cpu0.dcache.overallMshrUncacheable::total        65811                       # number of overall MSHR uncacheable misses (Count)
system.cpu0.dcache.demandMshrMissLatency::switch_cpus0.data 21447896052720                       # number of demand (read+write) MSHR miss ticks (Tick)
system.cpu0.dcache.demandMshrMissLatency::total 21447896052720                       # number of demand (read+write) MSHR miss ticks (Tick)
system.cpu0.dcache.overallMshrMissLatency::switch_cpus0.data 21447901877220                       # number of overall MSHR miss ticks (Tick)
system.cpu0.dcache.overallMshrMissLatency::total 21447901877220                       # number of overall MSHR miss ticks (Tick)
system.cpu0.dcache.overallMshrUncacheableLatency::switch_cpus0.data   3496132000                       # number of overall MSHR uncacheable ticks (Tick)
system.cpu0.dcache.overallMshrUncacheableLatency::total   3496132000                       # number of overall MSHR uncacheable ticks (Tick)
system.cpu0.dcache.demandMshrMissRate::switch_cpus0.data     0.088326                       # mshr miss ratio for demand accesses (Ratio)
system.cpu0.dcache.demandMshrMissRate::total     0.088326                       # mshr miss ratio for demand accesses (Ratio)
system.cpu0.dcache.overallMshrMissRate::switch_cpus0.data     0.088326                       # mshr miss ratio for overall accesses (Ratio)
system.cpu0.dcache.overallMshrMissRate::total     0.088326                       # mshr miss ratio for overall accesses (Ratio)
system.cpu0.dcache.demandAvgMshrMissLatency::switch_cpus0.data 167416.789988                       # average overall mshr miss latency ((Tick/Count))
system.cpu0.dcache.demandAvgMshrMissLatency::total 167416.789988                       # average overall mshr miss latency ((Tick/Count))
system.cpu0.dcache.overallAvgMshrMissLatency::switch_cpus0.data 167416.787101                       # average overall mshr miss latency ((Tick/Count))
system.cpu0.dcache.overallAvgMshrMissLatency::total 167416.787101                       # average overall mshr miss latency ((Tick/Count))
system.cpu0.dcache.overallAvgMshrUncacheableLatency::switch_cpus0.data 53123.824285                       # average overall mshr uncacheable latency ((Tick/Count))
system.cpu0.dcache.overallAvgMshrUncacheableLatency::total 53123.824285                       # average overall mshr uncacheable latency ((Tick/Count))
system.cpu0.dcache.replacements             128140207                       # number of replacements (Count)
system.cpu0.dcache.LoadLockedReq.hits::switch_cpus0.data            2                       # number of LoadLockedReq hits (Count)
system.cpu0.dcache.LoadLockedReq.hits::total            2                       # number of LoadLockedReq hits (Count)
system.cpu0.dcache.LoadLockedReq.accesses::switch_cpus0.data            2                       # number of LoadLockedReq accesses(hits+misses) (Count)
system.cpu0.dcache.LoadLockedReq.accesses::total            2                       # number of LoadLockedReq accesses(hits+misses) (Count)
system.cpu0.dcache.ReadReq.hits::switch_cpus0.data    605269770                       # number of ReadReq hits (Count)
system.cpu0.dcache.ReadReq.hits::total      605269770                       # number of ReadReq hits (Count)
system.cpu0.dcache.ReadReq.misses::switch_cpus0.data    575134796                       # number of ReadReq misses (Count)
system.cpu0.dcache.ReadReq.misses::total    575134796                       # number of ReadReq misses (Count)
system.cpu0.dcache.ReadReq.missLatency::switch_cpus0.data 84436088260000                       # number of ReadReq miss ticks (Tick)
system.cpu0.dcache.ReadReq.missLatency::total 84436088260000                       # number of ReadReq miss ticks (Tick)
system.cpu0.dcache.ReadReq.accesses::switch_cpus0.data   1180404566                       # number of ReadReq accesses(hits+misses) (Count)
system.cpu0.dcache.ReadReq.accesses::total   1180404566                       # number of ReadReq accesses(hits+misses) (Count)
system.cpu0.dcache.ReadReq.missRate::switch_cpus0.data     0.487235                       # miss rate for ReadReq accesses (Ratio)
system.cpu0.dcache.ReadReq.missRate::total     0.487235                       # miss rate for ReadReq accesses (Ratio)
system.cpu0.dcache.ReadReq.avgMissLatency::switch_cpus0.data 146810.954314                       # average ReadReq miss latency ((Tick/Count))
system.cpu0.dcache.ReadReq.avgMissLatency::total 146810.954314                       # average ReadReq miss latency ((Tick/Count))
system.cpu0.dcache.ReadReq.mshrHits::switch_cpus0.data    477910431                       # number of ReadReq MSHR hits (Count)
system.cpu0.dcache.ReadReq.mshrHits::total    477910431                       # number of ReadReq MSHR hits (Count)
system.cpu0.dcache.ReadReq.mshrMisses::switch_cpus0.data     97224365                       # number of ReadReq MSHR misses (Count)
system.cpu0.dcache.ReadReq.mshrMisses::total     97224365                       # number of ReadReq MSHR misses (Count)
system.cpu0.dcache.ReadReq.mshrUncacheable::switch_cpus0.data        56861                       # number of ReadReq MSHR uncacheable (Count)
system.cpu0.dcache.ReadReq.mshrUncacheable::total        56861                       # number of ReadReq MSHR uncacheable (Count)
system.cpu0.dcache.ReadReq.mshrMissLatency::switch_cpus0.data 15993149902000                       # number of ReadReq MSHR miss ticks (Tick)
system.cpu0.dcache.ReadReq.mshrMissLatency::total 15993149902000                       # number of ReadReq MSHR miss ticks (Tick)
system.cpu0.dcache.ReadReq.mshrUncacheableLatency::switch_cpus0.data   3496132000                       # number of ReadReq MSHR uncacheable ticks (Tick)
system.cpu0.dcache.ReadReq.mshrUncacheableLatency::total   3496132000                       # number of ReadReq MSHR uncacheable ticks (Tick)
system.cpu0.dcache.ReadReq.mshrMissRate::switch_cpus0.data     0.082365                       # mshr miss rate for ReadReq accesses (Ratio)
system.cpu0.dcache.ReadReq.mshrMissRate::total     0.082365                       # mshr miss rate for ReadReq accesses (Ratio)
system.cpu0.dcache.ReadReq.avgMshrMissLatency::switch_cpus0.data 164497.344899                       # average ReadReq mshr miss latency ((Tick/Count))
system.cpu0.dcache.ReadReq.avgMshrMissLatency::total 164497.344899                       # average ReadReq mshr miss latency ((Tick/Count))
system.cpu0.dcache.ReadReq.avgMshrUncacheableLatency::switch_cpus0.data 61485.587661                       # average ReadReq mshr uncacheable latency ((Tick/Count))
system.cpu0.dcache.ReadReq.avgMshrUncacheableLatency::total 61485.587661                       # average ReadReq mshr uncacheable latency ((Tick/Count))
system.cpu0.dcache.SoftPFReq.hits::switch_cpus0.data            3                       # number of SoftPFReq hits (Count)
system.cpu0.dcache.SoftPFReq.hits::total            3                       # number of SoftPFReq hits (Count)
system.cpu0.dcache.SoftPFReq.misses::switch_cpus0.data           38                       # number of SoftPFReq misses (Count)
system.cpu0.dcache.SoftPFReq.misses::total           38                       # number of SoftPFReq misses (Count)
system.cpu0.dcache.SoftPFReq.accesses::switch_cpus0.data           41                       # number of SoftPFReq accesses(hits+misses) (Count)
system.cpu0.dcache.SoftPFReq.accesses::total           41                       # number of SoftPFReq accesses(hits+misses) (Count)
system.cpu0.dcache.SoftPFReq.missRate::switch_cpus0.data     0.926829                       # miss rate for SoftPFReq accesses (Ratio)
system.cpu0.dcache.SoftPFReq.missRate::total     0.926829                       # miss rate for SoftPFReq accesses (Ratio)
system.cpu0.dcache.SoftPFReq.mshrMisses::switch_cpus0.data           37                       # number of SoftPFReq MSHR misses (Count)
system.cpu0.dcache.SoftPFReq.mshrMisses::total           37                       # number of SoftPFReq MSHR misses (Count)
system.cpu0.dcache.SoftPFReq.mshrMissLatency::switch_cpus0.data      5824500                       # number of SoftPFReq MSHR miss ticks (Tick)
system.cpu0.dcache.SoftPFReq.mshrMissLatency::total      5824500                       # number of SoftPFReq MSHR miss ticks (Tick)
system.cpu0.dcache.SoftPFReq.mshrMissRate::switch_cpus0.data     0.902439                       # mshr miss rate for SoftPFReq accesses (Ratio)
system.cpu0.dcache.SoftPFReq.mshrMissRate::total     0.902439                       # mshr miss rate for SoftPFReq accesses (Ratio)
system.cpu0.dcache.SoftPFReq.avgMshrMissLatency::switch_cpus0.data 157418.918919                       # average SoftPFReq mshr miss latency ((Tick/Count))
system.cpu0.dcache.SoftPFReq.avgMshrMissLatency::total 157418.918919                       # average SoftPFReq mshr miss latency ((Tick/Count))
system.cpu0.dcache.SwapReq.hits::switch_cpus0.data       232703                       # number of SwapReq hits (Count)
system.cpu0.dcache.SwapReq.hits::total         232703                       # number of SwapReq hits (Count)
system.cpu0.dcache.SwapReq.misses::switch_cpus0.data        31547                       # number of SwapReq misses (Count)
system.cpu0.dcache.SwapReq.misses::total        31547                       # number of SwapReq misses (Count)
system.cpu0.dcache.SwapReq.missLatency::switch_cpus0.data   4598189500                       # number of SwapReq miss ticks (Tick)
system.cpu0.dcache.SwapReq.missLatency::total   4598189500                       # number of SwapReq miss ticks (Tick)
system.cpu0.dcache.SwapReq.accesses::switch_cpus0.data       264250                       # number of SwapReq accesses(hits+misses) (Count)
system.cpu0.dcache.SwapReq.accesses::total       264250                       # number of SwapReq accesses(hits+misses) (Count)
system.cpu0.dcache.SwapReq.missRate::switch_cpus0.data     0.119383                       # miss rate for SwapReq accesses (Ratio)
system.cpu0.dcache.SwapReq.missRate::total     0.119383                       # miss rate for SwapReq accesses (Ratio)
system.cpu0.dcache.SwapReq.avgMissLatency::switch_cpus0.data 145756.791454                       # average SwapReq miss latency ((Tick/Count))
system.cpu0.dcache.SwapReq.avgMissLatency::total 145756.791454                       # average SwapReq miss latency ((Tick/Count))
system.cpu0.dcache.SwapReq.mshrMisses::switch_cpus0.data        31547                       # number of SwapReq MSHR misses (Count)
system.cpu0.dcache.SwapReq.mshrMisses::total        31547                       # number of SwapReq MSHR misses (Count)
system.cpu0.dcache.SwapReq.mshrMissLatency::switch_cpus0.data   4566642500                       # number of SwapReq MSHR miss ticks (Tick)
system.cpu0.dcache.SwapReq.mshrMissLatency::total   4566642500                       # number of SwapReq MSHR miss ticks (Tick)
system.cpu0.dcache.SwapReq.mshrMissRate::switch_cpus0.data     0.119383                       # mshr miss rate for SwapReq accesses (Ratio)
system.cpu0.dcache.SwapReq.mshrMissRate::total     0.119383                       # mshr miss rate for SwapReq accesses (Ratio)
system.cpu0.dcache.SwapReq.avgMshrMissLatency::switch_cpus0.data 144756.791454                       # average SwapReq mshr miss latency ((Tick/Count))
system.cpu0.dcache.SwapReq.avgMshrMissLatency::total 144756.791454                       # average SwapReq mshr miss latency ((Tick/Count))
system.cpu0.dcache.WriteLineReq.misses::switch_cpus0.data          512                       # number of WriteLineReq misses (Count)
system.cpu0.dcache.WriteLineReq.misses::total          512                       # number of WriteLineReq misses (Count)
system.cpu0.dcache.WriteLineReq.missLatency::switch_cpus0.data     30473075                       # number of WriteLineReq miss ticks (Tick)
system.cpu0.dcache.WriteLineReq.missLatency::total     30473075                       # number of WriteLineReq miss ticks (Tick)
system.cpu0.dcache.WriteLineReq.accesses::switch_cpus0.data          512                       # number of WriteLineReq accesses(hits+misses) (Count)
system.cpu0.dcache.WriteLineReq.accesses::total          512                       # number of WriteLineReq accesses(hits+misses) (Count)
system.cpu0.dcache.WriteLineReq.missRate::switch_cpus0.data            1                       # miss rate for WriteLineReq accesses (Ratio)
system.cpu0.dcache.WriteLineReq.missRate::total            1                       # miss rate for WriteLineReq accesses (Ratio)
system.cpu0.dcache.WriteLineReq.avgMissLatency::switch_cpus0.data 59517.724609                       # average WriteLineReq miss latency ((Tick/Count))
system.cpu0.dcache.WriteLineReq.avgMissLatency::total 59517.724609                       # average WriteLineReq miss latency ((Tick/Count))
system.cpu0.dcache.WriteLineReq.mshrMisses::switch_cpus0.data          512                       # number of WriteLineReq MSHR misses (Count)
system.cpu0.dcache.WriteLineReq.mshrMisses::total          512                       # number of WriteLineReq MSHR misses (Count)
system.cpu0.dcache.WriteLineReq.mshrMissLatency::switch_cpus0.data     29961075                       # number of WriteLineReq MSHR miss ticks (Tick)
system.cpu0.dcache.WriteLineReq.mshrMissLatency::total     29961075                       # number of WriteLineReq MSHR miss ticks (Tick)
system.cpu0.dcache.WriteLineReq.mshrMissRate::switch_cpus0.data            1                       # mshr miss rate for WriteLineReq accesses (Ratio)
system.cpu0.dcache.WriteLineReq.mshrMissRate::total            1                       # mshr miss rate for WriteLineReq accesses (Ratio)
system.cpu0.dcache.WriteLineReq.avgMshrMissLatency::switch_cpus0.data 58517.724609                       # average WriteLineReq mshr miss latency ((Tick/Count))
system.cpu0.dcache.WriteLineReq.avgMshrMissLatency::total 58517.724609                       # average WriteLineReq mshr miss latency ((Tick/Count))
system.cpu0.dcache.WriteReq.hits::switch_cpus0.data     25291819                       # number of WriteReq hits (Count)
system.cpu0.dcache.WriteReq.hits::total      25291819                       # number of WriteReq hits (Count)
system.cpu0.dcache.WriteReq.misses::switch_cpus0.data    244733102                       # number of WriteReq misses (Count)
system.cpu0.dcache.WriteReq.misses::total    244733102                       # number of WriteReq misses (Count)
system.cpu0.dcache.WriteReq.missLatency::switch_cpus0.data 34745800972233                       # number of WriteReq miss ticks (Tick)
system.cpu0.dcache.WriteReq.missLatency::total 34745800972233                       # number of WriteReq miss ticks (Tick)
system.cpu0.dcache.WriteReq.accesses::switch_cpus0.data    270024921                       # number of WriteReq accesses(hits+misses) (Count)
system.cpu0.dcache.WriteReq.accesses::total    270024921                       # number of WriteReq accesses(hits+misses) (Count)
system.cpu0.dcache.WriteReq.missRate::switch_cpus0.data     0.906335                       # miss rate for WriteReq accesses (Ratio)
system.cpu0.dcache.WriteReq.missRate::total     0.906335                       # miss rate for WriteReq accesses (Ratio)
system.cpu0.dcache.WriteReq.avgMissLatency::switch_cpus0.data 141974.259666                       # average WriteReq miss latency ((Tick/Count))
system.cpu0.dcache.WriteReq.avgMissLatency::total 141974.259666                       # average WriteReq miss latency ((Tick/Count))
system.cpu0.dcache.WriteReq.mshrHits::switch_cpus0.data    213847196                       # number of WriteReq MSHR hits (Count)
system.cpu0.dcache.WriteReq.mshrHits::total    213847196                       # number of WriteReq MSHR hits (Count)
system.cpu0.dcache.WriteReq.mshrMisses::switch_cpus0.data     30885906                       # number of WriteReq MSHR misses (Count)
system.cpu0.dcache.WriteReq.mshrMisses::total     30885906                       # number of WriteReq MSHR misses (Count)
system.cpu0.dcache.WriteReq.mshrUncacheable::switch_cpus0.data         8950                       # number of WriteReq MSHR uncacheable (Count)
system.cpu0.dcache.WriteReq.mshrUncacheable::total         8950                       # number of WriteReq MSHR uncacheable (Count)
system.cpu0.dcache.WriteReq.mshrMissLatency::switch_cpus0.data 5454716189645                       # number of WriteReq MSHR miss ticks (Tick)
system.cpu0.dcache.WriteReq.mshrMissLatency::total 5454716189645                       # number of WriteReq MSHR miss ticks (Tick)
system.cpu0.dcache.WriteReq.mshrMissRate::switch_cpus0.data     0.114382                       # mshr miss rate for WriteReq accesses (Ratio)
system.cpu0.dcache.WriteReq.mshrMissRate::total     0.114382                       # mshr miss rate for WriteReq accesses (Ratio)
system.cpu0.dcache.WriteReq.avgMshrMissLatency::switch_cpus0.data 176608.586118                       # average WriteReq mshr miss latency ((Tick/Count))
system.cpu0.dcache.WriteReq.avgMshrMissLatency::total 176608.586118                       # average WriteReq mshr miss latency ((Tick/Count))
system.cpu0.dcache.power_state.pwrStateResidencyTicks::UNDEFINED 93937875311000                       # Cumulative time (in ticks) in various power states (Tick)
system.cpu0.dcache.tags.tagsInUse          897.991118                       # Average ticks per tags in use ((Tick/Count))
system.cpu0.dcache.tags.totalRefs           758939099                       # Total number of references to valid blocks. (Count)
system.cpu0.dcache.tags.sampledRefs         128141316                       # Sample count of references to valid blocks. (Count)
system.cpu0.dcache.tags.avgRefs              5.922673                       # Average number of references to valid blocks. ((Count/Count))
system.cpu0.dcache.tags.warmupTick       6396038456500                       # The tick when the warmup percentage was hit. (Tick)
system.cpu0.dcache.tags.occupancies::switch_cpus0.data   897.991118                       # Average occupied blocks per tick, per requestor ((Count/Tick))
system.cpu0.dcache.tags.avgOccs::switch_cpus0.data     0.876944                       # Average percentage of cache occupancy ((Ratio/Tick))
system.cpu0.dcache.tags.avgOccs::total       0.876944                       # Average percentage of cache occupancy ((Ratio/Tick))
system.cpu0.dcache.tags.tagAccesses        5930918484                       # Number of tag accesses (Count)
system.cpu0.dcache.tags.dataAccesses       5930918484                       # Number of data accesses (Count)
system.cpu0.dcache.tags.power_state.pwrStateResidencyTicks::UNDEFINED 93937875311000                       # Cumulative time (in ticks) in various power states (Tick)
system.cpu0.icache.demandHits::switch_cpus0.inst     36670624                       # number of demand (read+write) hits (Count)
system.cpu0.icache.demandHits::total         36670624                       # number of demand (read+write) hits (Count)
system.cpu0.icache.overallHits::switch_cpus0.inst     36670624                       # number of overall hits (Count)
system.cpu0.icache.overallHits::total        36670624                       # number of overall hits (Count)
system.cpu0.icache.demandMisses::switch_cpus0.inst      1374891                       # number of demand (read+write) misses (Count)
system.cpu0.icache.demandMisses::total        1374891                       # number of demand (read+write) misses (Count)
system.cpu0.icache.overallMisses::switch_cpus0.inst      1374891                       # number of overall misses (Count)
system.cpu0.icache.overallMisses::total       1374891                       # number of overall misses (Count)
system.cpu0.icache.demandMissLatency::switch_cpus0.inst 169892363484                       # number of demand (read+write) miss ticks (Tick)
system.cpu0.icache.demandMissLatency::total 169892363484                       # number of demand (read+write) miss ticks (Tick)
system.cpu0.icache.overallMissLatency::switch_cpus0.inst 169892363484                       # number of overall miss ticks (Tick)
system.cpu0.icache.overallMissLatency::total 169892363484                       # number of overall miss ticks (Tick)
system.cpu0.icache.demandAccesses::switch_cpus0.inst     38045515                       # number of demand (read+write) accesses (Count)
system.cpu0.icache.demandAccesses::total     38045515                       # number of demand (read+write) accesses (Count)
system.cpu0.icache.overallAccesses::switch_cpus0.inst     38045515                       # number of overall (read+write) accesses (Count)
system.cpu0.icache.overallAccesses::total     38045515                       # number of overall (read+write) accesses (Count)
system.cpu0.icache.demandMissRate::switch_cpus0.inst     0.036138                       # miss rate for demand accesses (Ratio)
system.cpu0.icache.demandMissRate::total     0.036138                       # miss rate for demand accesses (Ratio)
system.cpu0.icache.overallMissRate::switch_cpus0.inst     0.036138                       # miss rate for overall accesses (Ratio)
system.cpu0.icache.overallMissRate::total     0.036138                       # miss rate for overall accesses (Ratio)
system.cpu0.icache.demandAvgMissLatency::switch_cpus0.inst 123567.878097                       # average overall miss latency in ticks ((Tick/Count))
system.cpu0.icache.demandAvgMissLatency::total 123567.878097                       # average overall miss latency in ticks ((Tick/Count))
system.cpu0.icache.overallAvgMissLatency::switch_cpus0.inst 123567.878097                       # average overall miss latency ((Tick/Count))
system.cpu0.icache.overallAvgMissLatency::total 123567.878097                       # average overall miss latency ((Tick/Count))
system.cpu0.icache.blockedCycles::no_mshrs       234082                       # number of cycles access was blocked (Cycle)
system.cpu0.icache.blockedCycles::no_targets            0                       # number of cycles access was blocked (Cycle)
system.cpu0.icache.blockedCauses::no_mshrs         1356                       # number of times access was blocked (Count)
system.cpu0.icache.blockedCauses::no_targets            0                       # number of times access was blocked (Count)
system.cpu0.icache.avgBlocked::no_mshrs    172.626844                       # average number of cycles each access was blocked ((Cycle/Count))
system.cpu0.icache.avgBlocked::no_targets          nan                       # average number of cycles each access was blocked ((Cycle/Count))
system.cpu0.icache.writebacks::writebacks      1219281                       # number of writebacks (Count)
system.cpu0.icache.writebacks::total          1219281                       # number of writebacks (Count)
system.cpu0.icache.demandMshrHits::switch_cpus0.inst       154586                       # number of demand (read+write) MSHR hits (Count)
system.cpu0.icache.demandMshrHits::total       154586                       # number of demand (read+write) MSHR hits (Count)
system.cpu0.icache.overallMshrHits::switch_cpus0.inst       154586                       # number of overall MSHR hits (Count)
system.cpu0.icache.overallMshrHits::total       154586                       # number of overall MSHR hits (Count)
system.cpu0.icache.demandMshrMisses::switch_cpus0.inst      1220305                       # number of demand (read+write) MSHR misses (Count)
system.cpu0.icache.demandMshrMisses::total      1220305                       # number of demand (read+write) MSHR misses (Count)
system.cpu0.icache.overallMshrMisses::switch_cpus0.inst      1220305                       # number of overall MSHR misses (Count)
system.cpu0.icache.overallMshrMisses::total      1220305                       # number of overall MSHR misses (Count)
system.cpu0.icache.demandMshrMissLatency::switch_cpus0.inst 151023475490                       # number of demand (read+write) MSHR miss ticks (Tick)
system.cpu0.icache.demandMshrMissLatency::total 151023475490                       # number of demand (read+write) MSHR miss ticks (Tick)
system.cpu0.icache.overallMshrMissLatency::switch_cpus0.inst 151023475490                       # number of overall MSHR miss ticks (Tick)
system.cpu0.icache.overallMshrMissLatency::total 151023475490                       # number of overall MSHR miss ticks (Tick)
system.cpu0.icache.demandMshrMissRate::switch_cpus0.inst     0.032075                       # mshr miss ratio for demand accesses (Ratio)
system.cpu0.icache.demandMshrMissRate::total     0.032075                       # mshr miss ratio for demand accesses (Ratio)
system.cpu0.icache.overallMshrMissRate::switch_cpus0.inst     0.032075                       # mshr miss ratio for overall accesses (Ratio)
system.cpu0.icache.overallMshrMissRate::total     0.032075                       # mshr miss ratio for overall accesses (Ratio)
system.cpu0.icache.demandAvgMshrMissLatency::switch_cpus0.inst 123758.794310                       # average overall mshr miss latency ((Tick/Count))
system.cpu0.icache.demandAvgMshrMissLatency::total 123758.794310                       # average overall mshr miss latency ((Tick/Count))
system.cpu0.icache.overallAvgMshrMissLatency::switch_cpus0.inst 123758.794310                       # average overall mshr miss latency ((Tick/Count))
system.cpu0.icache.overallAvgMshrMissLatency::total 123758.794310                       # average overall mshr miss latency ((Tick/Count))
system.cpu0.icache.replacements               1219281                       # number of replacements (Count)
system.cpu0.icache.ReadReq.hits::switch_cpus0.inst     36670624                       # number of ReadReq hits (Count)
system.cpu0.icache.ReadReq.hits::total       36670624                       # number of ReadReq hits (Count)
system.cpu0.icache.ReadReq.misses::switch_cpus0.inst      1374891                       # number of ReadReq misses (Count)
system.cpu0.icache.ReadReq.misses::total      1374891                       # number of ReadReq misses (Count)
system.cpu0.icache.ReadReq.missLatency::switch_cpus0.inst 169892363484                       # number of ReadReq miss ticks (Tick)
system.cpu0.icache.ReadReq.missLatency::total 169892363484                       # number of ReadReq miss ticks (Tick)
system.cpu0.icache.ReadReq.accesses::switch_cpus0.inst     38045515                       # number of ReadReq accesses(hits+misses) (Count)
system.cpu0.icache.ReadReq.accesses::total     38045515                       # number of ReadReq accesses(hits+misses) (Count)
system.cpu0.icache.ReadReq.missRate::switch_cpus0.inst     0.036138                       # miss rate for ReadReq accesses (Ratio)
system.cpu0.icache.ReadReq.missRate::total     0.036138                       # miss rate for ReadReq accesses (Ratio)
system.cpu0.icache.ReadReq.avgMissLatency::switch_cpus0.inst 123567.878097                       # average ReadReq miss latency ((Tick/Count))
system.cpu0.icache.ReadReq.avgMissLatency::total 123567.878097                       # average ReadReq miss latency ((Tick/Count))
system.cpu0.icache.ReadReq.mshrHits::switch_cpus0.inst       154586                       # number of ReadReq MSHR hits (Count)
system.cpu0.icache.ReadReq.mshrHits::total       154586                       # number of ReadReq MSHR hits (Count)
system.cpu0.icache.ReadReq.mshrMisses::switch_cpus0.inst      1220305                       # number of ReadReq MSHR misses (Count)
system.cpu0.icache.ReadReq.mshrMisses::total      1220305                       # number of ReadReq MSHR misses (Count)
system.cpu0.icache.ReadReq.mshrMissLatency::switch_cpus0.inst 151023475490                       # number of ReadReq MSHR miss ticks (Tick)
system.cpu0.icache.ReadReq.mshrMissLatency::total 151023475490                       # number of ReadReq MSHR miss ticks (Tick)
system.cpu0.icache.ReadReq.mshrMissRate::switch_cpus0.inst     0.032075                       # mshr miss rate for ReadReq accesses (Ratio)
system.cpu0.icache.ReadReq.mshrMissRate::total     0.032075                       # mshr miss rate for ReadReq accesses (Ratio)
system.cpu0.icache.ReadReq.avgMshrMissLatency::switch_cpus0.inst 123758.794310                       # average ReadReq mshr miss latency ((Tick/Count))
system.cpu0.icache.ReadReq.avgMshrMissLatency::total 123758.794310                       # average ReadReq mshr miss latency ((Tick/Count))
system.cpu0.icache.power_state.pwrStateResidencyTicks::UNDEFINED 93937875311000                       # Cumulative time (in ticks) in various power states (Tick)
system.cpu0.icache.tags.tagsInUse          952.608606                       # Average ticks per tags in use ((Tick/Count))
system.cpu0.icache.tags.totalRefs            37890929                       # Total number of references to valid blocks. (Count)
system.cpu0.icache.tags.sampledRefs           1220305                       # Sample count of references to valid blocks. (Count)
system.cpu0.icache.tags.avgRefs             31.050376                       # Average number of references to valid blocks. ((Count/Count))
system.cpu0.icache.tags.warmupTick       6396038304500                       # The tick when the warmup percentage was hit. (Tick)
system.cpu0.icache.tags.occupancies::switch_cpus0.inst   952.608606                       # Average occupied blocks per tick, per requestor ((Count/Tick))
system.cpu0.icache.tags.avgOccs::switch_cpus0.inst     0.930282                       # Average percentage of cache occupancy ((Ratio/Tick))
system.cpu0.icache.tags.avgOccs::total       0.930282                       # Average percentage of cache occupancy ((Ratio/Tick))
system.cpu0.icache.tags.tagAccesses         153402365                       # Number of tag accesses (Count)
system.cpu0.icache.tags.dataAccesses        153402365                       # Number of data accesses (Count)
system.cpu0.icache.tags.power_state.pwrStateResidencyTicks::UNDEFINED 93937875311000                       # Cumulative time (in ticks) in various power states (Tick)
system.cpu0.l2cache.demandHits::switch_cpus0.mmu.dtb_walker      1426424                       # number of demand (read+write) hits (Count)
system.cpu0.l2cache.demandHits::switch_cpus0.mmu.itb_walker        24567                       # number of demand (read+write) hits (Count)
system.cpu0.l2cache.demandHits::switch_cpus0.inst       307325                       # number of demand (read+write) hits (Count)
system.cpu0.l2cache.demandHits::switch_cpus0.data       332733                       # number of demand (read+write) hits (Count)
system.cpu0.l2cache.demandHits::total         2091049                       # number of demand (read+write) hits (Count)
system.cpu0.l2cache.overallHits::switch_cpus0.mmu.dtb_walker      1426424                       # number of overall hits (Count)
system.cpu0.l2cache.overallHits::switch_cpus0.mmu.itb_walker        24567                       # number of overall hits (Count)
system.cpu0.l2cache.overallHits::switch_cpus0.inst       307325                       # number of overall hits (Count)
system.cpu0.l2cache.overallHits::switch_cpus0.data       332733                       # number of overall hits (Count)
system.cpu0.l2cache.overallHits::total        2091049                       # number of overall hits (Count)
system.cpu0.l2cache.demandMisses::switch_cpus0.mmu.dtb_walker       266569                       # number of demand (read+write) misses (Count)
system.cpu0.l2cache.demandMisses::switch_cpus0.mmu.itb_walker        42938                       # number of demand (read+write) misses (Count)
system.cpu0.l2cache.demandMisses::switch_cpus0.inst       912980                       # number of demand (read+write) misses (Count)
system.cpu0.l2cache.demandMisses::switch_cpus0.data    127728987                       # number of demand (read+write) misses (Count)
system.cpu0.l2cache.demandMisses::total     128951474                       # number of demand (read+write) misses (Count)
system.cpu0.l2cache.overallMisses::switch_cpus0.mmu.dtb_walker       266569                       # number of overall misses (Count)
system.cpu0.l2cache.overallMisses::switch_cpus0.mmu.itb_walker        42938                       # number of overall misses (Count)
system.cpu0.l2cache.overallMisses::switch_cpus0.inst       912980                       # number of overall misses (Count)
system.cpu0.l2cache.overallMisses::switch_cpus0.data    127728987                       # number of overall misses (Count)
system.cpu0.l2cache.overallMisses::total    128951474                       # number of overall misses (Count)
system.cpu0.l2cache.demandMissLatency::switch_cpus0.mmu.dtb_walker  44417959591                       # number of demand (read+write) miss ticks (Tick)
system.cpu0.l2cache.demandMissLatency::switch_cpus0.mmu.itb_walker   7200253857                       # number of demand (read+write) miss ticks (Tick)
system.cpu0.l2cache.demandMissLatency::switch_cpus0.inst 145862475500                       # number of demand (read+write) miss ticks (Tick)
system.cpu0.l2cache.demandMissLatency::switch_cpus0.data 21251824621500                       # number of demand (read+write) miss ticks (Tick)
system.cpu0.l2cache.demandMissLatency::total 21449305310448                       # number of demand (read+write) miss ticks (Tick)
system.cpu0.l2cache.overallMissLatency::switch_cpus0.mmu.dtb_walker  44417959591                       # number of overall miss ticks (Tick)
system.cpu0.l2cache.overallMissLatency::switch_cpus0.mmu.itb_walker   7200253857                       # number of overall miss ticks (Tick)
system.cpu0.l2cache.overallMissLatency::switch_cpus0.inst 145862475500                       # number of overall miss ticks (Tick)
system.cpu0.l2cache.overallMissLatency::switch_cpus0.data 21251824621500                       # number of overall miss ticks (Tick)
system.cpu0.l2cache.overallMissLatency::total 21449305310448                       # number of overall miss ticks (Tick)
system.cpu0.l2cache.demandAccesses::switch_cpus0.mmu.dtb_walker      1692993                       # number of demand (read+write) accesses (Count)
system.cpu0.l2cache.demandAccesses::switch_cpus0.mmu.itb_walker        67505                       # number of demand (read+write) accesses (Count)
system.cpu0.l2cache.demandAccesses::switch_cpus0.inst      1220305                       # number of demand (read+write) accesses (Count)
system.cpu0.l2cache.demandAccesses::switch_cpus0.data    128061720                       # number of demand (read+write) accesses (Count)
system.cpu0.l2cache.demandAccesses::total    131042523                       # number of demand (read+write) accesses (Count)
system.cpu0.l2cache.overallAccesses::switch_cpus0.mmu.dtb_walker      1692993                       # number of overall (read+write) accesses (Count)
system.cpu0.l2cache.overallAccesses::switch_cpus0.mmu.itb_walker        67505                       # number of overall (read+write) accesses (Count)
system.cpu0.l2cache.overallAccesses::switch_cpus0.inst      1220305                       # number of overall (read+write) accesses (Count)
system.cpu0.l2cache.overallAccesses::switch_cpus0.data    128061720                       # number of overall (read+write) accesses (Count)
system.cpu0.l2cache.overallAccesses::total    131042523                       # number of overall (read+write) accesses (Count)
system.cpu0.l2cache.demandMissRate::switch_cpus0.mmu.dtb_walker     0.157454                       # miss rate for demand accesses (Ratio)
system.cpu0.l2cache.demandMissRate::switch_cpus0.mmu.itb_walker     0.636071                       # miss rate for demand accesses (Ratio)
system.cpu0.l2cache.demandMissRate::switch_cpus0.inst     0.748157                       # miss rate for demand accesses (Ratio)
system.cpu0.l2cache.demandMissRate::switch_cpus0.data     0.997402                       # miss rate for demand accesses (Ratio)
system.cpu0.l2cache.demandMissRate::total     0.984043                       # miss rate for demand accesses (Ratio)
system.cpu0.l2cache.overallMissRate::switch_cpus0.mmu.dtb_walker     0.157454                       # miss rate for overall accesses (Ratio)
system.cpu0.l2cache.overallMissRate::switch_cpus0.mmu.itb_walker     0.636071                       # miss rate for overall accesses (Ratio)
system.cpu0.l2cache.overallMissRate::switch_cpus0.inst     0.748157                       # miss rate for overall accesses (Ratio)
system.cpu0.l2cache.overallMissRate::switch_cpus0.data     0.997402                       # miss rate for overall accesses (Ratio)
system.cpu0.l2cache.overallMissRate::total     0.984043                       # miss rate for overall accesses (Ratio)
system.cpu0.l2cache.demandAvgMissLatency::switch_cpus0.mmu.dtb_walker 166628.376109                       # average overall miss latency in ticks ((Tick/Count))
system.cpu0.l2cache.demandAvgMissLatency::switch_cpus0.mmu.itb_walker 167689.549047                       # average overall miss latency in ticks ((Tick/Count))
system.cpu0.l2cache.demandAvgMissLatency::switch_cpus0.inst 159765.247322                       # average overall miss latency in ticks ((Tick/Count))
system.cpu0.l2cache.demandAvgMissLatency::switch_cpus0.data 166382.158981                       # average overall miss latency in ticks ((Tick/Count))
system.cpu0.l2cache.demandAvgMissLatency::total 166336.255377                       # average overall miss latency in ticks ((Tick/Count))
system.cpu0.l2cache.overallAvgMissLatency::switch_cpus0.mmu.dtb_walker 166628.376109                       # average overall miss latency ((Tick/Count))
system.cpu0.l2cache.overallAvgMissLatency::switch_cpus0.mmu.itb_walker 167689.549047                       # average overall miss latency ((Tick/Count))
system.cpu0.l2cache.overallAvgMissLatency::switch_cpus0.inst 159765.247322                       # average overall miss latency ((Tick/Count))
system.cpu0.l2cache.overallAvgMissLatency::switch_cpus0.data 166382.158981                       # average overall miss latency ((Tick/Count))
system.cpu0.l2cache.overallAvgMissLatency::total 166336.255377                       # average overall miss latency ((Tick/Count))
system.cpu0.l2cache.blockedCycles::no_mshrs            0                       # number of cycles access was blocked (Cycle)
system.cpu0.l2cache.blockedCycles::no_targets            0                       # number of cycles access was blocked (Cycle)
system.cpu0.l2cache.blockedCauses::no_mshrs            0                       # number of times access was blocked (Count)
system.cpu0.l2cache.blockedCauses::no_targets            0                       # number of times access was blocked (Count)
system.cpu0.l2cache.avgBlocked::no_mshrs          nan                       # average number of cycles each access was blocked ((Cycle/Count))
system.cpu0.l2cache.avgBlocked::no_targets          nan                       # average number of cycles each access was blocked ((Cycle/Count))
system.cpu0.l2cache.writebacks::writebacks     31054843                       # number of writebacks (Count)
system.cpu0.l2cache.writebacks::total        31054843                       # number of writebacks (Count)
system.cpu0.l2cache.demandMshrHits::switch_cpus0.mmu.dtb_walker            5                       # number of demand (read+write) MSHR hits (Count)
system.cpu0.l2cache.demandMshrHits::switch_cpus0.mmu.itb_walker           26                       # number of demand (read+write) MSHR hits (Count)
system.cpu0.l2cache.demandMshrHits::total           31                       # number of demand (read+write) MSHR hits (Count)
system.cpu0.l2cache.overallMshrHits::switch_cpus0.mmu.dtb_walker            5                       # number of overall MSHR hits (Count)
system.cpu0.l2cache.overallMshrHits::switch_cpus0.mmu.itb_walker           26                       # number of overall MSHR hits (Count)
system.cpu0.l2cache.overallMshrHits::total           31                       # number of overall MSHR hits (Count)
system.cpu0.l2cache.demandMshrMisses::switch_cpus0.mmu.dtb_walker       266564                       # number of demand (read+write) MSHR misses (Count)
system.cpu0.l2cache.demandMshrMisses::switch_cpus0.mmu.itb_walker        42912                       # number of demand (read+write) MSHR misses (Count)
system.cpu0.l2cache.demandMshrMisses::switch_cpus0.inst       912980                       # number of demand (read+write) MSHR misses (Count)
system.cpu0.l2cache.demandMshrMisses::switch_cpus0.data    127728987                       # number of demand (read+write) MSHR misses (Count)
system.cpu0.l2cache.demandMshrMisses::total    128951443                       # number of demand (read+write) MSHR misses (Count)
system.cpu0.l2cache.overallMshrMisses::switch_cpus0.mmu.dtb_walker       266564                       # number of overall MSHR misses (Count)
system.cpu0.l2cache.overallMshrMisses::switch_cpus0.mmu.itb_walker        42912                       # number of overall MSHR misses (Count)
system.cpu0.l2cache.overallMshrMisses::switch_cpus0.inst       912980                       # number of overall MSHR misses (Count)
system.cpu0.l2cache.overallMshrMisses::switch_cpus0.data    127728987                       # number of overall MSHR misses (Count)
system.cpu0.l2cache.overallMshrMisses::total    128951443                       # number of overall MSHR misses (Count)
system.cpu0.l2cache.overallMshrUncacheable::switch_cpus0.data        65811                       # number of overall MSHR uncacheable misses (Count)
system.cpu0.l2cache.overallMshrUncacheable::total        65811                       # number of overall MSHR uncacheable misses (Count)
system.cpu0.l2cache.demandMshrMissLatency::switch_cpus0.mmu.dtb_walker  41751759595                       # number of demand (read+write) MSHR miss ticks (Tick)
system.cpu0.l2cache.demandMshrMissLatency::switch_cpus0.mmu.itb_walker   6767231381                       # number of demand (read+write) MSHR miss ticks (Tick)
system.cpu0.l2cache.demandMshrMissLatency::switch_cpus0.inst 136732675500                       # number of demand (read+write) MSHR miss ticks (Tick)
system.cpu0.l2cache.demandMshrMissLatency::switch_cpus0.data 19974534741500                       # number of demand (read+write) MSHR miss ticks (Tick)
system.cpu0.l2cache.demandMshrMissLatency::total 20159786407976                       # number of demand (read+write) MSHR miss ticks (Tick)
system.cpu0.l2cache.overallMshrMissLatency::switch_cpus0.mmu.dtb_walker  41751759595                       # number of overall MSHR miss ticks (Tick)
system.cpu0.l2cache.overallMshrMissLatency::switch_cpus0.mmu.itb_walker   6767231381                       # number of overall MSHR miss ticks (Tick)
system.cpu0.l2cache.overallMshrMissLatency::switch_cpus0.inst 136732675500                       # number of overall MSHR miss ticks (Tick)
system.cpu0.l2cache.overallMshrMissLatency::switch_cpus0.data 19974534741500                       # number of overall MSHR miss ticks (Tick)
system.cpu0.l2cache.overallMshrMissLatency::total 20159786407976                       # number of overall MSHR miss ticks (Tick)
system.cpu0.l2cache.overallMshrUncacheableLatency::switch_cpus0.data   2813496000                       # number of overall MSHR uncacheable ticks (Tick)
system.cpu0.l2cache.overallMshrUncacheableLatency::total   2813496000                       # number of overall MSHR uncacheable ticks (Tick)
system.cpu0.l2cache.demandMshrMissRate::switch_cpus0.mmu.dtb_walker     0.157451                       # mshr miss ratio for demand accesses (Ratio)
system.cpu0.l2cache.demandMshrMissRate::switch_cpus0.mmu.itb_walker     0.635686                       # mshr miss ratio for demand accesses (Ratio)
system.cpu0.l2cache.demandMshrMissRate::switch_cpus0.inst     0.748157                       # mshr miss ratio for demand accesses (Ratio)
system.cpu0.l2cache.demandMshrMissRate::switch_cpus0.data     0.997402                       # mshr miss ratio for demand accesses (Ratio)
system.cpu0.l2cache.demandMshrMissRate::total     0.984043                       # mshr miss ratio for demand accesses (Ratio)
system.cpu0.l2cache.overallMshrMissRate::switch_cpus0.mmu.dtb_walker     0.157451                       # mshr miss ratio for overall accesses (Ratio)
system.cpu0.l2cache.overallMshrMissRate::switch_cpus0.mmu.itb_walker     0.635686                       # mshr miss ratio for overall accesses (Ratio)
system.cpu0.l2cache.overallMshrMissRate::switch_cpus0.inst     0.748157                       # mshr miss ratio for overall accesses (Ratio)
system.cpu0.l2cache.overallMshrMissRate::switch_cpus0.data     0.997402                       # mshr miss ratio for overall accesses (Ratio)
system.cpu0.l2cache.overallMshrMissRate::total     0.984043                       # mshr miss ratio for overall accesses (Ratio)
system.cpu0.l2cache.demandAvgMshrMissLatency::switch_cpus0.mmu.dtb_walker 156629.400801                       # average overall mshr miss latency ((Tick/Count))
system.cpu0.l2cache.demandAvgMshrMissLatency::switch_cpus0.mmu.itb_walker 157700.209289                       # average overall mshr miss latency ((Tick/Count))
system.cpu0.l2cache.demandAvgMshrMissLatency::switch_cpus0.inst 149765.247322                       # average overall mshr miss latency ((Tick/Count))
system.cpu0.l2cache.demandAvgMshrMissLatency::switch_cpus0.data 156382.158903                       # average overall mshr miss latency ((Tick/Count))
system.cpu0.l2cache.demandAvgMshrMissLatency::total 156336.260681                       # average overall mshr miss latency ((Tick/Count))
system.cpu0.l2cache.overallAvgMshrMissLatency::switch_cpus0.mmu.dtb_walker 156629.400801                       # average overall mshr miss latency ((Tick/Count))
system.cpu0.l2cache.overallAvgMshrMissLatency::switch_cpus0.mmu.itb_walker 157700.209289                       # average overall mshr miss latency ((Tick/Count))
system.cpu0.l2cache.overallAvgMshrMissLatency::switch_cpus0.inst 149765.247322                       # average overall mshr miss latency ((Tick/Count))
system.cpu0.l2cache.overallAvgMshrMissLatency::switch_cpus0.data 156382.158903                       # average overall mshr miss latency ((Tick/Count))
system.cpu0.l2cache.overallAvgMshrMissLatency::total 156336.260681                       # average overall mshr miss latency ((Tick/Count))
system.cpu0.l2cache.overallAvgMshrUncacheableLatency::switch_cpus0.data 42751.151023                       # average overall mshr uncacheable latency ((Tick/Count))
system.cpu0.l2cache.overallAvgMshrUncacheableLatency::total 42751.151023                       # average overall mshr uncacheable latency ((Tick/Count))
system.cpu0.l2cache.replacements            130292322                       # number of replacements (Count)
system.cpu0.l2cache.CleanEvict.mshrMisses::writebacks          103                       # number of CleanEvict MSHR misses (Count)
system.cpu0.l2cache.CleanEvict.mshrMisses::total          103                       # number of CleanEvict MSHR misses (Count)
system.cpu0.l2cache.CleanEvict.mshrMissRate::writebacks          inf                       # mshr miss rate for CleanEvict accesses (Ratio)
system.cpu0.l2cache.CleanEvict.mshrMissRate::total          inf                       # mshr miss rate for CleanEvict accesses (Ratio)
system.cpu0.l2cache.InvalidateReq.hits::switch_cpus0.data         2777                       # number of InvalidateReq hits (Count)
system.cpu0.l2cache.InvalidateReq.hits::total         2777                       # number of InvalidateReq hits (Count)
system.cpu0.l2cache.InvalidateReq.misses::switch_cpus0.data        76818                       # number of InvalidateReq misses (Count)
system.cpu0.l2cache.InvalidateReq.misses::total        76818                       # number of InvalidateReq misses (Count)
system.cpu0.l2cache.InvalidateReq.accesses::switch_cpus0.data        79595                       # number of InvalidateReq accesses(hits+misses) (Count)
system.cpu0.l2cache.InvalidateReq.accesses::total        79595                       # number of InvalidateReq accesses(hits+misses) (Count)
system.cpu0.l2cache.InvalidateReq.missRate::switch_cpus0.data     0.965111                       # miss rate for InvalidateReq accesses (Ratio)
system.cpu0.l2cache.InvalidateReq.missRate::total     0.965111                       # miss rate for InvalidateReq accesses (Ratio)
system.cpu0.l2cache.InvalidateReq.mshrMisses::switch_cpus0.data        76818                       # number of InvalidateReq MSHR misses (Count)
system.cpu0.l2cache.InvalidateReq.mshrMisses::total        76818                       # number of InvalidateReq MSHR misses (Count)
system.cpu0.l2cache.InvalidateReq.mshrMissLatency::switch_cpus0.data   3500035500                       # number of InvalidateReq MSHR miss ticks (Tick)
system.cpu0.l2cache.InvalidateReq.mshrMissLatency::total   3500035500                       # number of InvalidateReq MSHR miss ticks (Tick)
system.cpu0.l2cache.InvalidateReq.mshrMissRate::switch_cpus0.data     0.965111                       # mshr miss rate for InvalidateReq accesses (Ratio)
system.cpu0.l2cache.InvalidateReq.mshrMissRate::total     0.965111                       # mshr miss rate for InvalidateReq accesses (Ratio)
system.cpu0.l2cache.InvalidateReq.avgMshrMissLatency::switch_cpus0.data 45562.700148                       # average InvalidateReq mshr miss latency ((Tick/Count))
system.cpu0.l2cache.InvalidateReq.avgMshrMissLatency::total 45562.700148                       # average InvalidateReq mshr miss latency ((Tick/Count))
system.cpu0.l2cache.ReadCleanReq.hits::switch_cpus0.inst       307325                       # number of ReadCleanReq hits (Count)
system.cpu0.l2cache.ReadCleanReq.hits::total       307325                       # number of ReadCleanReq hits (Count)
system.cpu0.l2cache.ReadCleanReq.misses::switch_cpus0.inst       912980                       # number of ReadCleanReq misses (Count)
system.cpu0.l2cache.ReadCleanReq.misses::total       912980                       # number of ReadCleanReq misses (Count)
system.cpu0.l2cache.ReadCleanReq.missLatency::switch_cpus0.inst 145862475500                       # number of ReadCleanReq miss ticks (Tick)
system.cpu0.l2cache.ReadCleanReq.missLatency::total 145862475500                       # number of ReadCleanReq miss ticks (Tick)
system.cpu0.l2cache.ReadCleanReq.accesses::switch_cpus0.inst      1220305                       # number of ReadCleanReq accesses(hits+misses) (Count)
system.cpu0.l2cache.ReadCleanReq.accesses::total      1220305                       # number of ReadCleanReq accesses(hits+misses) (Count)
system.cpu0.l2cache.ReadCleanReq.missRate::switch_cpus0.inst     0.748157                       # miss rate for ReadCleanReq accesses (Ratio)
system.cpu0.l2cache.ReadCleanReq.missRate::total     0.748157                       # miss rate for ReadCleanReq accesses (Ratio)
system.cpu0.l2cache.ReadCleanReq.avgMissLatency::switch_cpus0.inst 159765.247322                       # average ReadCleanReq miss latency ((Tick/Count))
system.cpu0.l2cache.ReadCleanReq.avgMissLatency::total 159765.247322                       # average ReadCleanReq miss latency ((Tick/Count))
system.cpu0.l2cache.ReadCleanReq.mshrMisses::switch_cpus0.inst       912980                       # number of ReadCleanReq MSHR misses (Count)
system.cpu0.l2cache.ReadCleanReq.mshrMisses::total       912980                       # number of ReadCleanReq MSHR misses (Count)
system.cpu0.l2cache.ReadCleanReq.mshrMissLatency::switch_cpus0.inst 136732675500                       # number of ReadCleanReq MSHR miss ticks (Tick)
system.cpu0.l2cache.ReadCleanReq.mshrMissLatency::total 136732675500                       # number of ReadCleanReq MSHR miss ticks (Tick)
system.cpu0.l2cache.ReadCleanReq.mshrMissRate::switch_cpus0.inst     0.748157                       # mshr miss rate for ReadCleanReq accesses (Ratio)
system.cpu0.l2cache.ReadCleanReq.mshrMissRate::total     0.748157                       # mshr miss rate for ReadCleanReq accesses (Ratio)
system.cpu0.l2cache.ReadCleanReq.avgMshrMissLatency::switch_cpus0.inst 149765.247322                       # average ReadCleanReq mshr miss latency ((Tick/Count))
system.cpu0.l2cache.ReadCleanReq.avgMshrMissLatency::total 149765.247322                       # average ReadCleanReq mshr miss latency ((Tick/Count))
system.cpu0.l2cache.ReadExReq.hits::switch_cpus0.data       176132                       # number of ReadExReq hits (Count)
system.cpu0.l2cache.ReadExReq.hits::total       176132                       # number of ReadExReq hits (Count)
system.cpu0.l2cache.ReadExReq.misses::switch_cpus0.data     30661186                       # number of ReadExReq misses (Count)
system.cpu0.l2cache.ReadExReq.misses::total     30661186                       # number of ReadExReq misses (Count)
system.cpu0.l2cache.ReadExReq.missLatency::switch_cpus0.data 5406524189500                       # number of ReadExReq miss ticks (Tick)
system.cpu0.l2cache.ReadExReq.missLatency::total 5406524189500                       # number of ReadExReq miss ticks (Tick)
system.cpu0.l2cache.ReadExReq.accesses::switch_cpus0.data     30837318                       # number of ReadExReq accesses(hits+misses) (Count)
system.cpu0.l2cache.ReadExReq.accesses::total     30837318                       # number of ReadExReq accesses(hits+misses) (Count)
system.cpu0.l2cache.ReadExReq.missRate::switch_cpus0.data     0.994288                       # miss rate for ReadExReq accesses (Ratio)
system.cpu0.l2cache.ReadExReq.missRate::total     0.994288                       # miss rate for ReadExReq accesses (Ratio)
system.cpu0.l2cache.ReadExReq.avgMissLatency::switch_cpus0.data 176331.215286                       # average ReadExReq miss latency ((Tick/Count))
system.cpu0.l2cache.ReadExReq.avgMissLatency::total 176331.215286                       # average ReadExReq miss latency ((Tick/Count))
system.cpu0.l2cache.ReadExReq.mshrMisses::switch_cpus0.data     30661186                       # number of ReadExReq MSHR misses (Count)
system.cpu0.l2cache.ReadExReq.mshrMisses::total     30661186                       # number of ReadExReq MSHR misses (Count)
system.cpu0.l2cache.ReadExReq.mshrMissLatency::switch_cpus0.data 5099912319500                       # number of ReadExReq MSHR miss ticks (Tick)
system.cpu0.l2cache.ReadExReq.mshrMissLatency::total 5099912319500                       # number of ReadExReq MSHR miss ticks (Tick)
system.cpu0.l2cache.ReadExReq.mshrMissRate::switch_cpus0.data     0.994288                       # mshr miss rate for ReadExReq accesses (Ratio)
system.cpu0.l2cache.ReadExReq.mshrMissRate::total     0.994288                       # mshr miss rate for ReadExReq accesses (Ratio)
system.cpu0.l2cache.ReadExReq.avgMshrMissLatency::switch_cpus0.data 166331.214960                       # average ReadExReq mshr miss latency ((Tick/Count))
system.cpu0.l2cache.ReadExReq.avgMshrMissLatency::total 166331.214960                       # average ReadExReq mshr miss latency ((Tick/Count))
system.cpu0.l2cache.ReadReq.hits::switch_cpus0.mmu.dtb_walker      1426424                       # number of ReadReq hits (Count)
system.cpu0.l2cache.ReadReq.hits::switch_cpus0.mmu.itb_walker        24567                       # number of ReadReq hits (Count)
system.cpu0.l2cache.ReadReq.hits::total       1450991                       # number of ReadReq hits (Count)
system.cpu0.l2cache.ReadReq.misses::switch_cpus0.mmu.dtb_walker       266569                       # number of ReadReq misses (Count)
system.cpu0.l2cache.ReadReq.misses::switch_cpus0.mmu.itb_walker        42938                       # number of ReadReq misses (Count)
system.cpu0.l2cache.ReadReq.misses::total       309507                       # number of ReadReq misses (Count)
system.cpu0.l2cache.ReadReq.missLatency::switch_cpus0.mmu.dtb_walker  44417959591                       # number of ReadReq miss ticks (Tick)
system.cpu0.l2cache.ReadReq.missLatency::switch_cpus0.mmu.itb_walker   7200253857                       # number of ReadReq miss ticks (Tick)
system.cpu0.l2cache.ReadReq.missLatency::total  51618213448                       # number of ReadReq miss ticks (Tick)
system.cpu0.l2cache.ReadReq.accesses::switch_cpus0.mmu.dtb_walker      1692993                       # number of ReadReq accesses(hits+misses) (Count)
system.cpu0.l2cache.ReadReq.accesses::switch_cpus0.mmu.itb_walker        67505                       # number of ReadReq accesses(hits+misses) (Count)
system.cpu0.l2cache.ReadReq.accesses::total      1760498                       # number of ReadReq accesses(hits+misses) (Count)
system.cpu0.l2cache.ReadReq.missRate::switch_cpus0.mmu.dtb_walker     0.157454                       # miss rate for ReadReq accesses (Ratio)
system.cpu0.l2cache.ReadReq.missRate::switch_cpus0.mmu.itb_walker     0.636071                       # miss rate for ReadReq accesses (Ratio)
system.cpu0.l2cache.ReadReq.missRate::total     0.175807                       # miss rate for ReadReq accesses (Ratio)
system.cpu0.l2cache.ReadReq.avgMissLatency::switch_cpus0.mmu.dtb_walker 166628.376109                       # average ReadReq miss latency ((Tick/Count))
system.cpu0.l2cache.ReadReq.avgMissLatency::switch_cpus0.mmu.itb_walker 167689.549047                       # average ReadReq miss latency ((Tick/Count))
system.cpu0.l2cache.ReadReq.avgMissLatency::total 166775.592953                       # average ReadReq miss latency ((Tick/Count))
system.cpu0.l2cache.ReadReq.mshrHits::switch_cpus0.mmu.dtb_walker            5                       # number of ReadReq MSHR hits (Count)
system.cpu0.l2cache.ReadReq.mshrHits::switch_cpus0.mmu.itb_walker           26                       # number of ReadReq MSHR hits (Count)
system.cpu0.l2cache.ReadReq.mshrHits::total           31                       # number of ReadReq MSHR hits (Count)
system.cpu0.l2cache.ReadReq.mshrMisses::switch_cpus0.mmu.dtb_walker       266564                       # number of ReadReq MSHR misses (Count)
system.cpu0.l2cache.ReadReq.mshrMisses::switch_cpus0.mmu.itb_walker        42912                       # number of ReadReq MSHR misses (Count)
system.cpu0.l2cache.ReadReq.mshrMisses::total       309476                       # number of ReadReq MSHR misses (Count)
system.cpu0.l2cache.ReadReq.mshrUncacheable::switch_cpus0.data        56861                       # number of ReadReq MSHR uncacheable (Count)
system.cpu0.l2cache.ReadReq.mshrUncacheable::total        56861                       # number of ReadReq MSHR uncacheable (Count)
system.cpu0.l2cache.ReadReq.mshrMissLatency::switch_cpus0.mmu.dtb_walker  41751759595                       # number of ReadReq MSHR miss ticks (Tick)
system.cpu0.l2cache.ReadReq.mshrMissLatency::switch_cpus0.mmu.itb_walker   6767231381                       # number of ReadReq MSHR miss ticks (Tick)
system.cpu0.l2cache.ReadReq.mshrMissLatency::total  48518990976                       # number of ReadReq MSHR miss ticks (Tick)
system.cpu0.l2cache.ReadReq.mshrUncacheableLatency::switch_cpus0.data   2813496000                       # number of ReadReq MSHR uncacheable ticks (Tick)
system.cpu0.l2cache.ReadReq.mshrUncacheableLatency::total   2813496000                       # number of ReadReq MSHR uncacheable ticks (Tick)
system.cpu0.l2cache.ReadReq.mshrMissRate::switch_cpus0.mmu.dtb_walker     0.157451                       # mshr miss rate for ReadReq accesses (Ratio)
system.cpu0.l2cache.ReadReq.mshrMissRate::switch_cpus0.mmu.itb_walker     0.635686                       # mshr miss rate for ReadReq accesses (Ratio)
system.cpu0.l2cache.ReadReq.mshrMissRate::total     0.175789                       # mshr miss rate for ReadReq accesses (Ratio)
system.cpu0.l2cache.ReadReq.avgMshrMissLatency::switch_cpus0.mmu.dtb_walker 156629.400801                       # average ReadReq mshr miss latency ((Tick/Count))
system.cpu0.l2cache.ReadReq.avgMshrMissLatency::switch_cpus0.mmu.itb_walker 157700.209289                       # average ReadReq mshr miss latency ((Tick/Count))
system.cpu0.l2cache.ReadReq.avgMshrMissLatency::total 156777.879306                       # average ReadReq mshr miss latency ((Tick/Count))
system.cpu0.l2cache.ReadReq.avgMshrUncacheableLatency::switch_cpus0.data 49480.241290                       # average ReadReq mshr uncacheable latency ((Tick/Count))
system.cpu0.l2cache.ReadReq.avgMshrUncacheableLatency::total 49480.241290                       # average ReadReq mshr uncacheable latency ((Tick/Count))
system.cpu0.l2cache.ReadSharedReq.hits::switch_cpus0.data       156601                       # number of ReadSharedReq hits (Count)
system.cpu0.l2cache.ReadSharedReq.hits::total       156601                       # number of ReadSharedReq hits (Count)
system.cpu0.l2cache.ReadSharedReq.misses::switch_cpus0.data     97067801                       # number of ReadSharedReq misses (Count)
system.cpu0.l2cache.ReadSharedReq.misses::total     97067801                       # number of ReadSharedReq misses (Count)
system.cpu0.l2cache.ReadSharedReq.missLatency::switch_cpus0.data 15845300432000                       # number of ReadSharedReq miss ticks (Tick)
system.cpu0.l2cache.ReadSharedReq.missLatency::total 15845300432000                       # number of ReadSharedReq miss ticks (Tick)
system.cpu0.l2cache.ReadSharedReq.accesses::switch_cpus0.data     97224402                       # number of ReadSharedReq accesses(hits+misses) (Count)
system.cpu0.l2cache.ReadSharedReq.accesses::total     97224402                       # number of ReadSharedReq accesses(hits+misses) (Count)
system.cpu0.l2cache.ReadSharedReq.missRate::switch_cpus0.data     0.998389                       # miss rate for ReadSharedReq accesses (Ratio)
system.cpu0.l2cache.ReadSharedReq.missRate::total     0.998389                       # miss rate for ReadSharedReq accesses (Ratio)
system.cpu0.l2cache.ReadSharedReq.avgMissLatency::switch_cpus0.data 163239.511648                       # average ReadSharedReq miss latency ((Tick/Count))
system.cpu0.l2cache.ReadSharedReq.avgMissLatency::total 163239.511648                       # average ReadSharedReq miss latency ((Tick/Count))
system.cpu0.l2cache.ReadSharedReq.mshrMisses::switch_cpus0.data     97067801                       # number of ReadSharedReq MSHR misses (Count)
system.cpu0.l2cache.ReadSharedReq.mshrMisses::total     97067801                       # number of ReadSharedReq MSHR misses (Count)
system.cpu0.l2cache.ReadSharedReq.mshrMissLatency::switch_cpus0.data 14874622422000                       # number of ReadSharedReq MSHR miss ticks (Tick)
system.cpu0.l2cache.ReadSharedReq.mshrMissLatency::total 14874622422000                       # number of ReadSharedReq MSHR miss ticks (Tick)
system.cpu0.l2cache.ReadSharedReq.mshrMissRate::switch_cpus0.data     0.998389                       # mshr miss rate for ReadSharedReq accesses (Ratio)
system.cpu0.l2cache.ReadSharedReq.mshrMissRate::total     0.998389                       # mshr miss rate for ReadSharedReq accesses (Ratio)
system.cpu0.l2cache.ReadSharedReq.avgMshrMissLatency::switch_cpus0.data 153239.511648                       # average ReadSharedReq mshr miss latency ((Tick/Count))
system.cpu0.l2cache.ReadSharedReq.avgMshrMissLatency::total 153239.511648                       # average ReadSharedReq mshr miss latency ((Tick/Count))
system.cpu0.l2cache.UpgradeReq.hits::switch_cpus0.data            9                       # number of UpgradeReq hits (Count)
system.cpu0.l2cache.UpgradeReq.hits::total            9                       # number of UpgradeReq hits (Count)
system.cpu0.l2cache.UpgradeReq.misses::switch_cpus0.data         1043                       # number of UpgradeReq misses (Count)
system.cpu0.l2cache.UpgradeReq.misses::total         1043                       # number of UpgradeReq misses (Count)
system.cpu0.l2cache.UpgradeReq.missLatency::switch_cpus0.data     47471498                       # number of UpgradeReq miss ticks (Tick)
system.cpu0.l2cache.UpgradeReq.missLatency::total     47471498                       # number of UpgradeReq miss ticks (Tick)
system.cpu0.l2cache.UpgradeReq.accesses::switch_cpus0.data         1052                       # number of UpgradeReq accesses(hits+misses) (Count)
system.cpu0.l2cache.UpgradeReq.accesses::total         1052                       # number of UpgradeReq accesses(hits+misses) (Count)
system.cpu0.l2cache.UpgradeReq.missRate::switch_cpus0.data     0.991445                       # miss rate for UpgradeReq accesses (Ratio)
system.cpu0.l2cache.UpgradeReq.missRate::total     0.991445                       # miss rate for UpgradeReq accesses (Ratio)
system.cpu0.l2cache.UpgradeReq.avgMissLatency::switch_cpus0.data 45514.379674                       # average UpgradeReq miss latency ((Tick/Count))
system.cpu0.l2cache.UpgradeReq.avgMissLatency::total 45514.379674                       # average UpgradeReq miss latency ((Tick/Count))
system.cpu0.l2cache.UpgradeReq.mshrMisses::switch_cpus0.data         1043                       # number of UpgradeReq MSHR misses (Count)
system.cpu0.l2cache.UpgradeReq.mshrMisses::total         1043                       # number of UpgradeReq MSHR misses (Count)
system.cpu0.l2cache.UpgradeReq.mshrMissLatency::switch_cpus0.data     37051498                       # number of UpgradeReq MSHR miss ticks (Tick)
system.cpu0.l2cache.UpgradeReq.mshrMissLatency::total     37051498                       # number of UpgradeReq MSHR miss ticks (Tick)
system.cpu0.l2cache.UpgradeReq.mshrMissRate::switch_cpus0.data     0.991445                       # mshr miss rate for UpgradeReq accesses (Ratio)
system.cpu0.l2cache.UpgradeReq.mshrMissRate::total     0.991445                       # mshr miss rate for UpgradeReq accesses (Ratio)
system.cpu0.l2cache.UpgradeReq.avgMshrMissLatency::switch_cpus0.data 35523.967402                       # average UpgradeReq mshr miss latency ((Tick/Count))
system.cpu0.l2cache.UpgradeReq.avgMshrMissLatency::total 35523.967402                       # average UpgradeReq mshr miss latency ((Tick/Count))
system.cpu0.l2cache.WriteReq.mshrUncacheable::switch_cpus0.data         8950                       # number of WriteReq MSHR uncacheable (Count)
system.cpu0.l2cache.WriteReq.mshrUncacheable::total         8950                       # number of WriteReq MSHR uncacheable (Count)
system.cpu0.l2cache.WritebackClean.hits::writebacks      1219281                       # number of WritebackClean hits (Count)
system.cpu0.l2cache.WritebackClean.hits::total      1219281                       # number of WritebackClean hits (Count)
system.cpu0.l2cache.WritebackClean.accesses::writebacks      1219281                       # number of WritebackClean accesses(hits+misses) (Count)
system.cpu0.l2cache.WritebackClean.accesses::total      1219281                       # number of WritebackClean accesses(hits+misses) (Count)
system.cpu0.l2cache.WritebackDirty.hits::writebacks     31320010                       # number of WritebackDirty hits (Count)
system.cpu0.l2cache.WritebackDirty.hits::total     31320010                       # number of WritebackDirty hits (Count)
system.cpu0.l2cache.WritebackDirty.accesses::writebacks     31320010                       # number of WritebackDirty accesses(hits+misses) (Count)
system.cpu0.l2cache.WritebackDirty.accesses::total     31320010                       # number of WritebackDirty accesses(hits+misses) (Count)
system.cpu0.l2cache.power_state.pwrStateResidencyTicks::UNDEFINED 93937875311000                       # Cumulative time (in ticks) in various power states (Tick)
system.cpu0.l2cache.tags.tagsInUse        7568.311815                       # Average ticks per tags in use ((Tick/Count))
system.cpu0.l2cache.tags.totalRefs          260405700                       # Total number of references to valid blocks. (Count)
system.cpu0.l2cache.tags.sampledRefs        130303381                       # Sample count of references to valid blocks. (Count)
system.cpu0.l2cache.tags.avgRefs             1.998457                       # Average number of references to valid blocks. ((Count/Count))
system.cpu0.l2cache.tags.warmupTick      6396037754000                       # The tick when the warmup percentage was hit. (Tick)
system.cpu0.l2cache.tags.occupancies::writebacks   518.902007                       # Average occupied blocks per tick, per requestor ((Count/Tick))
system.cpu0.l2cache.tags.occupancies::switch_cpus0.mmu.dtb_walker    63.497095                       # Average occupied blocks per tick, per requestor ((Count/Tick))
system.cpu0.l2cache.tags.occupancies::switch_cpus0.mmu.itb_walker     1.024127                       # Average occupied blocks per tick, per requestor ((Count/Tick))
system.cpu0.l2cache.tags.occupancies::switch_cpus0.inst   481.107544                       # Average occupied blocks per tick, per requestor ((Count/Tick))
system.cpu0.l2cache.tags.occupancies::switch_cpus0.data  6503.781043                       # Average occupied blocks per tick, per requestor ((Count/Tick))
system.cpu0.l2cache.tags.avgOccs::writebacks     0.063343                       # Average percentage of cache occupancy ((Ratio/Tick))
system.cpu0.l2cache.tags.avgOccs::switch_cpus0.mmu.dtb_walker     0.007751                       # Average percentage of cache occupancy ((Ratio/Tick))
system.cpu0.l2cache.tags.avgOccs::switch_cpus0.mmu.itb_walker     0.000125                       # Average percentage of cache occupancy ((Ratio/Tick))
system.cpu0.l2cache.tags.avgOccs::switch_cpus0.inst     0.058729                       # Average percentage of cache occupancy ((Ratio/Tick))
system.cpu0.l2cache.tags.avgOccs::switch_cpus0.data     0.793919                       # Average percentage of cache occupancy ((Ratio/Tick))
system.cpu0.l2cache.tags.avgOccs::total      0.923866                       # Average percentage of cache occupancy ((Ratio/Tick))
system.cpu0.l2cache.tags.tagAccesses       4298025797                       # Number of tag accesses (Count)
system.cpu0.l2cache.tags.dataAccesses      4298025797                       # Number of data accesses (Count)
system.cpu0.l2cache.tags.power_state.pwrStateResidencyTicks::UNDEFINED 93937875311000                       # Cumulative time (in ticks) in various power states (Tick)
system.cpu0.mmu.alignFaults                         0                       # Number of MMU faults due to alignment restrictions (Count)
system.cpu0.mmu.prefetchFaults                      0                       # Number of MMU faults due to prefetch (Count)
system.cpu0.mmu.domainFaults                        0                       # Number of MMU faults due to domain restrictions (Count)
system.cpu0.mmu.permsFaults                         0                       # Number of MMU faults due to permissions restrictions (Count)
system.cpu0.mmu.dtb.readHits                        0                       # Read hits (Count)
system.cpu0.mmu.dtb.readMisses                      0                       # Read misses (Count)
system.cpu0.mmu.dtb.writeHits                       0                       # Write hits (Count)
[...]
system.switch_cpus3.mmu.l2_shared.flushTlbMva            0                       # Number of times TLB was flushed by MVA (Count)
system.switch_cpus3.mmu.l2_shared.flushTlbMvaAsid            0                       # Number of times TLB was flushed by MVA & ASID (Count)
system.switch_cpus3.mmu.l2_shared.flushTlbAsid            0                       # Number of times TLB was flushed by ASID (Count)
system.switch_cpus3.mmu.l2_shared.flushedEntries         1280                       # Number of entries that have been flushed from TLB (Count)
system.switch_cpus3.mmu.l2_shared.readAccesses      4573787                       # Read accesses (Count)
system.switch_cpus3.mmu.l2_shared.writeAccesses      9211255                       # Write accesses (Count)
system.switch_cpus3.mmu.l2_shared.instAccesses            7                       # Inst accesses (Count)
system.switch_cpus3.mmu.l2_shared.hits       13638271                       # Total TLB (inst and data) hits (Count)
system.switch_cpus3.mmu.l2_shared.misses       146778                       # Total TLB (inst and data) misses (Count)
system.switch_cpus3.mmu.l2_shared.accesses     13785049                       # Total TLB (inst and data) accesses (Count)
system.switch_cpus3.mmu.stage2_dtb.readHits            0                       # Read hits (Count)
system.switch_cpus3.mmu.stage2_dtb.readMisses            0                       # Read misses (Count)
system.switch_cpus3.mmu.stage2_dtb.writeHits            0                       # Write hits (Count)
system.switch_cpus3.mmu.stage2_dtb.writeMisses            0                       # Write misses (Count)
system.switch_cpus3.mmu.stage2_dtb.inserts            0                       # Number of times an entry is inserted into the TLB (Count)
system.switch_cpus3.mmu.stage2_dtb.flushTlb            2                       # Number of times complete TLB was flushed (Count)
system.switch_cpus3.mmu.stage2_dtb.flushTlbMva            0                       # Number of times TLB was flushed by MVA (Count)
system.switch_cpus3.mmu.stage2_dtb.flushTlbMvaAsid            0                       # Number of times TLB was flushed by MVA & ASID (Count)
system.switch_cpus3.mmu.stage2_dtb.flushTlbAsid            0                       # Number of times TLB was flushed by ASID (Count)
system.switch_cpus3.mmu.stage2_dtb.flushedEntries            0                       # Number of entries that have been flushed from TLB (Count)
system.switch_cpus3.mmu.stage2_dtb.readAccesses            0                       # Read accesses (Count)
system.switch_cpus3.mmu.stage2_dtb.writeAccesses            0                       # Write accesses (Count)
system.switch_cpus3.mmu.stage2_dtb.hits             0                       # Total TLB (inst and data) hits (Count)
system.switch_cpus3.mmu.stage2_dtb.misses            0                       # Total TLB (inst and data) misses (Count)
system.switch_cpus3.mmu.stage2_dtb.accesses            0                       # Total TLB (inst and data) accesses (Count)
system.switch_cpus3.mmu.stage2_dtb_walker.walks            0                       # Table walker walks requested (Count)
system.switch_cpus3.mmu.stage2_dtb_walker.requestOrigin_Requested::Data            0                       # Table walker requests started/completed, data/inst (Count)
system.switch_cpus3.mmu.stage2_dtb_walker.requestOrigin_Requested::Inst            0                       # Table walker requests started/completed, data/inst (Count)
system.switch_cpus3.mmu.stage2_dtb_walker.requestOrigin_Requested::total            0                       # Table walker requests started/completed, data/inst (Count)
system.switch_cpus3.mmu.stage2_dtb_walker.requestOrigin_Completed::Data            0                       # Table walker requests started/completed, data/inst (Count)
system.switch_cpus3.mmu.stage2_dtb_walker.requestOrigin_Completed::Inst            0                       # Table walker requests started/completed, data/inst (Count)
system.switch_cpus3.mmu.stage2_dtb_walker.requestOrigin_Completed::total            0                       # Table walker requests started/completed, data/inst (Count)
system.switch_cpus3.mmu.stage2_dtb_walker.requestOrigin::total            0                       # Table walker requests started/completed, data/inst (Count)
system.switch_cpus3.mmu.stage2_dtb_walker.power_state.pwrStateResidencyTicks::UNDEFINED 93937875311000                       # Cumulative time (in ticks) in various power states (Tick)
system.switch_cpus3.mmu.stage2_itb.instHits            0                       # Inst hits (Count)
system.switch_cpus3.mmu.stage2_itb.instMisses            0                       # Inst misses (Count)
system.switch_cpus3.mmu.stage2_itb.inserts            0                       # Number of times an entry is inserted into the TLB (Count)
system.switch_cpus3.mmu.stage2_itb.flushTlb            2                       # Number of times complete TLB was flushed (Count)
system.switch_cpus3.mmu.stage2_itb.flushTlbMva            0                       # Number of times TLB was flushed by MVA (Count)
system.switch_cpus3.mmu.stage2_itb.flushTlbMvaAsid            0                       # Number of times TLB was flushed by MVA & ASID (Count)
system.switch_cpus3.mmu.stage2_itb.flushTlbAsid            0                       # Number of times TLB was flushed by ASID (Count)
system.switch_cpus3.mmu.stage2_itb.flushedEntries            0                       # Number of entries that have been flushed from TLB (Count)
system.switch_cpus3.mmu.stage2_itb.instAccesses            0                       # Inst accesses (Count)
system.switch_cpus3.mmu.stage2_itb.hits             0                       # Total TLB (inst and data) hits (Count)
system.switch_cpus3.mmu.stage2_itb.misses            0                       # Total TLB (inst and data) misses (Count)
system.switch_cpus3.mmu.stage2_itb.accesses            0                       # Total TLB (inst and data) accesses (Count)
system.switch_cpus3.mmu.stage2_itb_walker.walks            0                       # Table walker walks requested (Count)
system.switch_cpus3.mmu.stage2_itb_walker.requestOrigin_Requested::Data            0                       # Table walker requests started/completed, data/inst (Count)
system.switch_cpus3.mmu.stage2_itb_walker.requestOrigin_Requested::Inst            0                       # Table walker requests started/completed, data/inst (Count)
system.switch_cpus3.mmu.stage2_itb_walker.requestOrigin_Requested::total            0                       # Table walker requests started/completed, data/inst (Count)
system.switch_cpus3.mmu.stage2_itb_walker.requestOrigin_Completed::Data            0                       # Table walker requests started/completed, data/inst (Count)
system.switch_cpus3.mmu.stage2_itb_walker.requestOrigin_Completed::Inst            0                       # Table walker requests started/completed, data/inst (Count)
system.switch_cpus3.mmu.stage2_itb_walker.requestOrigin_Completed::total            0                       # Table walker requests started/completed, data/inst (Count)
system.switch_cpus3.mmu.stage2_itb_walker.requestOrigin::total            0                       # Table walker requests started/completed, data/inst (Count)
system.switch_cpus3.mmu.stage2_itb_walker.power_state.pwrStateResidencyTicks::UNDEFINED 93937875311000                       # Cumulative time (in ticks) in various power states (Tick)
system.switch_cpus3.power_state.numTransitions            5                       # Number of power state transitions (Count)
system.switch_cpus3.power_state.ticksClkGated::samples            2                       # Distribution of time spent in the clock gated state (Tick)
system.switch_cpus3.power_state.ticksClkGated::mean 40121312170251                       # Distribution of time spent in the clock gated state (Tick)
system.switch_cpus3.power_state.ticksClkGated::stdev 56740103810665.164062                       # Distribution of time spent in the clock gated state (Tick)
system.switch_cpus3.power_state.ticksClkGated::underflows            1     50.00%     50.00% # Distribution of time spent in the clock gated state (Tick)
system.switch_cpus3.power_state.ticksClkGated::overflows            1     50.00%    100.00% # Distribution of time spent in the clock gated state (Tick)
system.switch_cpus3.power_state.ticksClkGated::min_value          501                       # Distribution of time spent in the clock gated state (Tick)
system.switch_cpus3.power_state.ticksClkGated::max_value 80242624340001                       # Distribution of time spent in the clock gated state (Tick)
system.switch_cpus3.power_state.ticksClkGated::total            2                       # Distribution of time spent in the clock gated state (Tick)
system.switch_cpus3.power_state.pwrStateResidencyTicks::ON   1004031998                       # Cumulative time (in ticks) in various power states (Tick)
system.switch_cpus3.power_state.pwrStateResidencyTicks::CLK_GATED 80242624340502                       # Cumulative time (in ticks) in various power states (Tick)
system.switch_cpus3.power_state.pwrStateResidencyTicks::OFF 13694246938500                       # Cumulative time (in ticks) in various power states (Tick)
system.switch_cpus3.rename.squashCycles         66904                       # Number of cycles rename is squashing (Cycle)
system.switch_cpus3.rename.idleCycles       130071905                       # Number of cycles rename is idle (Cycle)
system.switch_cpus3.rename.blockCycles     7276903740                       # Number of cycles rename is blocking (Cycle)
system.switch_cpus3.rename.serializeStallCycles     33557372                       # count of cycles rename stalled for serializing inst (Cycle)
system.switch_cpus3.rename.runCycles        213041660                       # Number of cycles rename is running (Cycle)
system.switch_cpus3.rename.unblockCycles   6645776279                       # Number of cycles rename is unblocking (Cycle)
system.switch_cpus3.rename.renamedInsts    2051649894                       # Number of instructions processed by rename (Count)
system.switch_cpus3.rename.ROBFullEvents        85197                       # Number of times rename has blocked due to ROB full (Count)
system.switch_cpus3.rename.IQFullEvents        226742                       # Number of times rename has blocked due to IQ full (Count)
system.switch_cpus3.rename.LQFullEvents        119712                       # Number of times rename has blocked due to LQ full (Count)
system.switch_cpus3.rename.SQFullEvents    6616304203                       # Number of times rename has blocked due to SQ full (Count)
system.switch_cpus3.rename.renamedOperands   1880682744                       # Number of destination operands rename has renamed (Count)
system.switch_cpus3.rename.lookups         2907073359                       # Number of register rename lookups that rename has made (Count)
system.switch_cpus3.rename.intLookups      2648714812                       # Number of integer rename lookups (Count)
system.switch_cpus3.rename.vecLookups             223                       # Number of vector rename lookups (Count)
system.switch_cpus3.rename.committedMaps   1878279788                       # Number of HB maps that are committed (Count)
system.switch_cpus3.rename.undoneMaps         2402956                       # Number of HB maps that are undone due to squashing (Count)
system.switch_cpus3.rename.serializing         175472                       # count of serializing insts renamed (Count)
system.switch_cpus3.rename.tempSerializing        16591                       # count of temporary serializing insts renamed (Count)
system.switch_cpus3.rename.skidInsts        786103387                       # count of insts added to the skid buffer (Count)
system.switch_cpus3.rob.reads             16176042215                       # The number of ROB reads (Count)
system.switch_cpus3.rob.writes             4103230381                       # The number of ROB writes (Count)
system.switch_cpus3.thread_0.numInsts       856577680                       # Number of Instructions committed (Count)
system.switch_cpus3.thread_0.numOps        2048994641                       # Number of Ops committed (Count)
system.switch_cpus3.thread_0.numMemRefs             0                       # Number of Memory References (Count)
system.tollcbus.transDist::ReadReq             420327                       # Transaction distribution (Count)
system.tollcbus.transDist::ReadResp        1702843997                       # Transaction distribution (Count)
system.tollcbus.transDist::WriteReq             55199                       # Transaction distribution (Count)
system.tollcbus.transDist::WriteResp            55199                       # Transaction distribution (Count)
system.tollcbus.transDist::WritebackDirty   3262087610                       # Transaction distribution (Count)
system.tollcbus.transDist::CleanEvict      3689298747                       # Transaction distribution (Count)
system.tollcbus.transDist::UpgradeReq            1309                       # Transaction distribution (Count)
system.tollcbus.transDist::UpgradeResp           1309                       # Transaction distribution (Count)
system.tollcbus.transDist::ReadExReq       1630521176                       # Transaction distribution (Count)
system.tollcbus.transDist::ReadExResp      1630521176                       # Transaction distribution (Count)
system.tollcbus.transDist::ReadSharedReq   1702423670                       # Transaction distribution (Count)
system.tollcbus.transDist::InvalidateReq        81314                       # Transaction distribution (Count)
system.tollcbus.transDist::InvalidateResp        81314                       # Transaction distribution (Count)
system.tollcbus.pktCount_system.cpu0.l2cache.mem_side_port::system.llc.cpu_side_port    387523748                       # Packet count per connected requestor and responder (Count)
system.tollcbus.pktCount_system.cpu1.l2cache.mem_side_port::system.llc.cpu_side_port   8586490708                       # Packet count per connected requestor and responder (Count)
system.tollcbus.pktCount_system.cpu2.l2cache.mem_side_port::system.llc.cpu_side_port    513859810                       # Packet count per connected requestor and responder (Count)
system.tollcbus.pktCount_system.cpu3.l2cache.mem_side_port::system.llc.cpu_side_port    512092801                       # Packet count per connected requestor and responder (Count)
system.tollcbus.pktCount::total            9999967067                       # Packet count per connected requestor and responder (Count)
system.tollcbus.pktSize_system.cpu0.l2cache.mem_side_port::system.llc.cpu_side_port  10241192383                       # Cumulative packet size per connected requestor and responder (Byte)
system.tollcbus.pktSize_system.cpu1.l2cache.mem_side_port::system.llc.cpu_side_port 274653673306                       # Cumulative packet size per connected requestor and responder (Byte)
system.tollcbus.pktSize_system.cpu2.l2cache.mem_side_port::system.llc.cpu_side_port  16427839142                       # Cumulative packet size per connected requestor and responder (Byte)
system.tollcbus.pktSize_system.cpu3.l2cache.mem_side_port::system.llc.cpu_side_port  16373657595                       # Cumulative packet size per connected requestor and responder (Byte)
system.tollcbus.pktSize::total           317696362426                       # Cumulative packet size per connected requestor and responder (Byte)
system.tollcbus.snoops                     3618425280                       # Total snoops (Count)
system.tollcbus.snoopTraffic             104387535360                       # Total snoop traffic (Byte)
system.tollcbus.snoopFanout::samples       6951578358                       # Request fanout histogram (Count)
system.tollcbus.snoopFanout::mean            0.092262                       # Request fanout histogram (Count)
system.tollcbus.snoopFanout::stdev           0.290785                       # Request fanout histogram (Count)
system.tollcbus.snoopFanout::underflows             0      0.00%      0.00% # Request fanout histogram (Count)
system.tollcbus.snoopFanout::0             6311835931     90.80%     90.80% # Request fanout histogram (Count)
system.tollcbus.snoopFanout::1              639009190      9.19%     99.99% # Request fanout histogram (Count)
system.tollcbus.snoopFanout::2                 132053      0.00%     99.99% # Request fanout histogram (Count)
system.tollcbus.snoopFanout::3                 311971      0.00%    100.00% # Request fanout histogram (Count)
system.tollcbus.snoopFanout::4                 289213      0.00%    100.00% # Request fanout histogram (Count)
system.tollcbus.snoopFanout::overflows              0      0.00%    100.00% # Request fanout histogram (Count)
system.tollcbus.snoopFanout::min_value              0                       # Request fanout histogram (Count)
system.tollcbus.snoopFanout::max_value              4                       # Request fanout histogram (Count)
system.tollcbus.snoopFanout::total         6951578358                       # Request fanout histogram (Count)
system.tollcbus.power_state.pwrStateResidencyTicks::UNDEFINED 93937875311000                       # Cumulative time (in ticks) in various power states (Tick)
system.tollcbus.reqLayer0.occupancy      4964158323368                       # Layer occupancy (ticks) (Tick)
system.tollcbus.reqLayer0.utilization             0.1                       # Layer utilization (Ratio)
system.tollcbus.respLayer0.occupancy     193528186081                       # Layer occupancy (ticks) (Tick)
system.tollcbus.respLayer0.utilization            0.0                       # Layer utilization (Ratio)
system.tollcbus.respLayer1.occupancy     4293214318119                       # Layer occupancy (ticks) (Tick)
system.tollcbus.respLayer1.utilization            0.0                       # Layer utilization (Ratio)
system.tollcbus.respLayer2.occupancy     256867959347                       # Layer occupancy (ticks) (Tick)
system.tollcbus.respLayer2.utilization            0.0                       # Layer utilization (Ratio)
system.tollcbus.respLayer3.occupancy     256023717887                       # Layer occupancy (ticks) (Tick)
system.tollcbus.respLayer3.utilization            0.0                       # Layer utilization (Ratio)
system.tollcbus.snoop_filter.totRequests   6666022829                       # Total number of requests made to the snoop filter. (Count)
system.tollcbus.snoop_filter.hitSingleRequests   3332618652                       # Number of requests hitting in the snoop filter with a single holder of the requested data. (Count)
system.tollcbus.snoop_filter.hitMultiRequests       875075                       # Number of requests hitting in the snoop filter with multiple (>1) holders of the requested data. (Count)
system.tollcbus.snoop_filter.totSnoops      639240166                       # Total number of snoops made to the snoop filter. (Count)
system.tollcbus.snoop_filter.hitSingleSnoops    638885719                       # Number of snoops hitting in the snoop filter with a single holder of the requested data. (Count)
system.tollcbus.snoop_filter.hitMultiSnoops       354447                       # Number of snoops hitting in the snoop filter with multiple (>1) holders of the requested data. (Count)
system.voltage_domain.voltage                       1                       # Voltage in Volts (Volt)
system.workload.inst.arm                            0                       # number of arm instructions executed (Count)
system.workload.inst.quiesce                        8                       # number of quiesce instructions executed (Count)

---------- End Simulation Statistics   ----------
