Global frequency set at 1000000000000 ticks per second
Creating DRAM rank2 0 
requestor writebacks, id 0
requestor functional, id 1
requestor interrupt, id 2
requestor cpu0.mmu.dtb.walker, id 3
requestor cpu0.mmu.itb.walker, id 4
requestor cpu0.inst, id 5
requestor cpu0.data, id 6
requestor cpu1.mmu.dtb.walker, id 7
requestor cpu1.mmu.itb.walker, id 8
requestor cpu1.inst, id 9
requestor cpu1.data, id 10
gem5 Simulator System.  https://www.gem5.org
gem5 is copyrighted software; use the --copyright option for details.

gem5 version 22.0.0.2
gem5 compiled May 10 2025 16:20:38
gem5 started May 10 2025 16:22:27
gem5 executing on c61d571fafa5, pid 25
command line: build/X86/gem5.opt configs/example/se.py -n=2 --env=/home/llj/Pivot/mastreeenv.txt '--cmd=/home/llj/Tailbench/tailbench/masstree/mttest_gem5se;/home/llj/dockerspec/benchspec/CPU/519.lbm_r/run/run_base_refrate_mytest-m64.0000/lbm_r_base.mytest-m64' '--options=-j1 mycsba masstree -s1;3000 /home/llj/dockerspec/benchspec/CPU/519.lbm_r/run/run_base_refrate_mytest-m64.0000/eference.dat 0 0 /home/llj/dockerspec/benchspec/CPU/519.lbm_r/run/run_base_refrate_mytest-m64.0000/100_100_130_ldc.of' --cpu-type=X86O3CPU --caches --l2cache --l3cache --l1d_size=64kB --l1d_assoc=4 --l1i_size=64kB --l1i_assoc=4 --l2_size=512kB --l2_assoc=8 --l3_size=4MB --mem-type=DDR5_6400_4x8 --mem-size=16GB --dualRowBuffer

**** REAL SIMULATION ****
MAIN_printInfo:
	grid size      : 100 x 100 x 130 = 1.30 * 10^6 Cells
	nTimeSteps     : 3000
	result file    : /home/llj/dockerspec/benchspec/CPU/519.lbm_r/run/run_base_refrate_mytest-m64.0000/eference.dat
	action         : nothing
	simulation type: lid-driven cavity
	obstacle file  : /home/llj/dockerspec/benchspec/CPU/519.lbm_r/run/run_base_refrate_mytest-m64.0000/100_100_130_ldc.of

TBENCH_MAXREQS = 10000
TBENCH_WARMUPREQS = 1000
TBENCH_MINSLEEPNS = 10000
TBENCH_RANDSEED = 
gem5 test
now 1000000000.003503
finish init 1000000000.003526
populate 0 sz 10000
start bench now 1000000000.013498
ID:0 queue:8726693 server:2891572 sjr:11618265
ID:1 queue:13947246 server:1191484 sjr:15138730
ID:2 queue:15736274 server:843227 sjr:16579501
ID:3 queue:16661575 server:854880 sjr:17516455
ID:4 queue:16808821 server:828544 sjr:17637365
ID:5 queue:17937012 server:844211 sjr:18781223
ID:6 queue:19420486 server:822319 sjr:20242805
ID:7 queue:20518013 server:847706 sjr:21365719
ID:8 queue:22013040 server:826691 sjr:22839731
ID:9 queue:23461683 server:841355 sjr:24303038
ID:10 queue:24384696 server:826551 sjr:25211247
ID:11 queue:24527982 server:841986 sjr:25369968
ID:12 queue:25645031 server:827178 sjr:26472209
ID:13 queue:26591314 server:854506 sjr:27445820
ID:14 queue:27493311 server:830287 sjr:28323598
Exiting @ tick 49932558500 because user interrupt received
