Global frequency set at 1000000000000 ticks per second
Creating DRAM rank2 0 
requestor writebacks, id 0
requestor functional, id 1
requestor interrupt, id 2
requestor cpu0.mmu.dtb.walker, id 3
requestor cpu0.mmu.itb.walker, id 4
requestor cpu0.inst, id 5
requestor cpu0.data, id 6
requestor cpu1.mmu.dtb.walker, id 7
requestor cpu1.mmu.itb.walker, id 8
requestor cpu1.inst, id 9
requestor cpu1.data, id 10
gem5 Simulator System.  https://www.gem5.org
gem5 is copyrighted software; use the --copyright option for details.

gem5 version 22.0.0.2
gem5 compiled May 13 2025 20:26:39
gem5 started May 15 2025 12:08:04
gem5 executing on a80651755162, pid 74043
command line: build/X86/gem5.opt configs/example/se.py -n=2 --env=/home/wjy/Pivot/mastreeenv.txt '--cmd=/home/wjy/Tailbench/tailbench/masstree/mttest_gem5se;/home/llj/dockerspec/benchspec/CPU/519.lbm_r/run/run_base_refrate_mytest-m64.0000/lbm_r_base.mytest-m64' '--options=-j1 mycsba masstree -s1;3000 /home/llj/dockerspec/benchspec/CPU/519.lbm_r/run/run_base_refrate_mytest-m64.0000/eference.dat 0 0 /home/llj/dockerspec/benchspec/CPU/519.lbm_r/run/run_base_refrate_mytest-m64.0000/100_100_130_ldc.of' --cpu-type=X86O3CPU --caches --l2cache --l3cache --l1d_size=48kB --l1d_assoc=12 --l1i_size=32kB --l1i_assoc=8 --l2_size=2MB --l2_assoc=16 --l3c_size=112MB --l3c_assoc=14 --l3b_size=8MB --l3b_assoc=1 --mem-type=DDR5_6400_4x8 --mem-size=16GB --latency_critical_num=1 --test_mode=MBA --MBACtrl=30% --dualRowBuffer

set MBA to  30%
0:latency 32 assoc 14 size 117440512
1:latency 382 assoc 1 size 8388608
**** REAL SIMULATION ****
MAIN_printInfo:
	grid size      : 100 x 100 x 130 = 1.30 * 10^6 Cells
	nTimeSteps     : 3000
	result file    : /home/llj/dockerspec/benchspec/CPU/519.lbm_r/run/run_base_refrate_mytest-m64.0000/eference.dat
	action         : nothing
	simulation type: lid-driven cavity
	obstacle file  : /home/llj/dockerspec/benchspec/CPU/519.lbm_r/run/run_base_refrate_mytest-m64.0000/100_100_130_ldc.of

TBENCH_MAXREQS = 10000
TBENCH_WARMUPREQS = 1000
TBENCH_MINSLEEPNS = 1000
TBENCH_RANDSEED = 2017
TBENCH_QPS = 600

gem5 test
now 1000000000.004223
finish init 1000000000.004251
populate 0 sz 10000
start bench now 1000000000.015142
interval: 1666666
start req: 1000000000024244734 gen: 1000000000016814749
recv req: 1000000000024245870
send resp: 1000000000027067694
ID:0 curr: 1000000000027069076 queue:7432503 service:2821824 sjr:10254327
interval: 1666666
start req: 1000000000027988947 gen: 1000000000018481415
recv req: 1000000000027989776
send resp: 1000000000028786294
ID:1 curr: 1000000000028787028 queue:9509095 service:796518 sjr:10305613
interval: 1666666
start req: 1000000000029501944 gen: 1000000000020148081
recv req: 1000000000029502691
send resp: 1000000000030289345
ID:2 curr: 1000000000030290062 queue:9355327 service:786654 sjr:10141981
interval: 1666666
start req: 1000000000030997923 gen: 1000000000021814747
recv req: 1000000000030998662
send resp: 1000000000031797942
ID:3 curr: 1000000000031798574 queue:9184547 service:799280 sjr:9983827
interval: 1666666
start req: 1000000000032517391 gen: 1000000000023481413
recv req: 1000000000032518144
send resp: 1000000000033302988
ID:4 curr: 1000000000033303644 queue:9037387 service:784844 sjr:9822231
interval: 1666666
start req: 1000000000034040418 gen: 1000000000025148079
recv req: 1000000000034041203
send resp: 1000000000034839364
ID:5 curr: 1000000000034839933 queue:8893693 service:798161 sjr:9691854
interval: 1666666
start req: 1000000000035546567 gen: 1000000000026814745
recv req: 1000000000035547336
send resp: 1000000000036330374
ID:6 curr: 1000000000036330956 queue:8733173 service:783038 sjr:9516211
interval: 1666666
start req: 1000000000037037842 gen: 1000000000028481411
recv req: 1000000000037038600
send resp: 1000000000037837959
ID:7 curr: 1000000000037838537 queue:8557767 service:799359 sjr:9357126
interval: 1666666
start req: 1000000000038545385 gen: 1000000000030148077
recv req: 1000000000038546142
send resp: 1000000000039334529
ID:8 curr: 1000000000039335172 queue:8398708 service:788387 sjr:9187095
interval: 1666666
start req: 1000000000040049066 gen: 1000000000031814743
recv req: 1000000000040049841
send resp: 1000000000040844116
ID:9 curr: 1000000000040844734 queue:8235716 service:794275 sjr:9029991
interval: 1666666
start req: 1000000000041559869 gen: 1000000000033481409
recv req: 1000000000041560628
send resp: 1000000000042345783
ID:10 curr: 1000000000042346409 queue:8079845 service:785155 sjr:8865000
interval: 1666666
start req: 1000000000043056988 gen: 1000000000035148075
recv req: 1000000000043057733
send resp: 1000000000043860177
ID:11 curr: 1000000000043860806 queue:7910287 service:802444 sjr:8712731
interval: 1666666
start req: 1000000000044566342 gen: 1000000000036814741
recv req: 1000000000044567120
send resp: 1000000000045350578
ID:12 curr: 1000000000045351153 queue:7752954 service:783458 sjr:8536412
interval: 1666666
start req: 1000000000046058912 gen: 1000000000038481407
recv req: 1000000000046059677
send resp: 1000000000046863958
ID:13 curr: 1000000000046864530 queue:7578842 service:804281 sjr:8383123
interval: 1666666
start req: 1000000000047569961 gen: 1000000000040148073
recv req: 1000000000047570711
send resp: 1000000000048357036
ID:14 curr: 1000000000048357616 queue:7423218 service:786325 sjr:8209543
interval: 1666666
start req: 1000000000049063005 gen: 1000000000041814739
recv req: 1000000000049063772
send resp: 1000000000049857242
ID:15 curr: 1000000000049857878 queue:7249669 service:793470 sjr:8043139
interval: 1666666
start req: 1000000000050563117 gen: 1000000000043481405
recv req: 1000000000050563871
send resp: 1000000000051350477
ID:16 curr: 1000000000051351107 queue:7083096 service:786606 sjr:7869702
interval: 1666666
start req: 1000000000052068476 gen: 1000000000045148071
recv req: 1000000000052069252
send resp: 1000000000052876846
ID:17 curr: 1000000000052877477 queue:6921812 service:807594 sjr:7729406
interval: 1666666
start req: 1000000000053590244 gen: 1000000000046814737
recv req: 1000000000053590997
send resp: 1000000000054375011
ID:18 curr: 1000000000054375642 queue:6776891 service:784014 sjr:7560905
interval: 1666666
start req: 1000000000055080781 gen: 1000000000048481403
recv req: 1000000000055081538
send resp: 1000000000055872983
ID:19 curr: 1000000000055873572 queue:6600724 service:791445 sjr:7392169
interval: 1666666
start req: 1000000000056579006 gen: 1000000000050148069
recv req: 1000000000056579779
send resp: 1000000000057366164
ID:20 curr: 1000000000057366756 queue:6432302 service:786385 sjr:7218687
interval: 1666666
start req: 1000000000058080315 gen: 1000000000051814735
recv req: 1000000000058081071
send resp: 1000000000058889768
ID:21 curr: 1000000000058890346 queue:6266914 service:808697 sjr:7075611
interval: 1666666
start req: 1000000000059597120 gen: 1000000000053481401
recv req: 1000000000059597876
send resp: 1000000000060382304
ID:22 curr: 1000000000060382947 queue:6117118 service:784428 sjr:6901546
interval: 1666666
start req: 1000000000061088504 gen: 1000000000055148067
recv req: 1000000000061089266
send resp: 1000000000061885817
ID:23 curr: 1000000000061886446 queue:5941828 service:796551 sjr:6738379
interval: 1666666
start req: 1000000000062595501 gen: 1000000000056814733
recv req: 1000000000062596254
send resp: 1000000000063381290
ID:24 curr: 1000000000063381926 queue:5782157 service:785036 sjr:6567193
interval: 1666666
start req: 1000000000064090021 gen: 1000000000058481399
recv req: 1000000000064090764
send resp: 1000000000064898284
ID:25 curr: 1000000000064898915 queue:5609996 service:807520 sjr:6417516
interval: 1666666
start req: 1000000000065607493 gen: 1000000000060148065
recv req: 1000000000065608250
send resp: 1000000000066386377
ID:26 curr: 1000000000066386987 queue:5460795 service:778127 sjr:6238922
interval: 1666666
start req: 1000000000067091826 gen: 1000000000061814731
recv req: 1000000000067092582
send resp: 1000000000067897282
ID:27 curr: 1000000000067897857 queue:5278426 service:804700 sjr:6083126
interval: 1666666
start req: 1000000000068608209 gen: 1000000000063481397
recv req: 1000000000068608965
send resp: 1000000000069390248
ID:28 curr: 1000000000069390836 queue:5128156 service:781283 sjr:5909439
interval: 1666666
start req: 1000000000070103914 gen: 1000000000065148063
recv req: 1000000000070104694
send resp: 1000000000070897660
ID:29 curr: 1000000000070898294 queue:4957265 service:792966 sjr:5750231
interval: 1666666
start req: 1000000000071607210 gen: 1000000000066814729
recv req: 1000000000071607969
send resp: 1000000000072392931
ID:30 curr: 1000000000072393577 queue:4793886 service:784962 sjr:5578848
interval: 1666666
start req: 1000000000073100405 gen: 1000000000068481395
recv req: 1000000000073101160
send resp: 1000000000073890258
ID:31 curr: 1000000000073890887 queue:4620394 service:789098 sjr:5409492
interval: 1666666
start req: 1000000000074597157 gen: 1000000000070148061
recv req: 1000000000074597916
send resp: 1000000000075379457
ID:32 curr: 1000000000075380088 queue:4450486 service:781541 sjr:5232027
interval: 1666666
start req: 1000000000076092471 gen: 1000000000071814727
recv req: 1000000000076093241
send resp: 1000000000076883500
ID:33 curr: 1000000000076884073 queue:4279087 service:790259 sjr:5069346
interval: 1666666
start req: 1000000000077594854 gen: 1000000000073481393
recv req: 1000000000077595620
send resp: 1000000000078376408
ID:34 curr: 1000000000078376999 queue:4114818 service:780788 sjr:4895606
interval: 1666666
start req: 1000000000079082589 gen: 1000000000075148059
recv req: 1000000000079083363
send resp: 1000000000079872981
ID:35 curr: 1000000000079873610 queue:3935933 service:789618 sjr:4725551
interval: 1666666
start req: 1000000000080579103 gen: 1000000000076814725
recv req: 1000000000080579865
send resp: 1000000000081362574
ID:36 curr: 1000000000081363217 queue:3765783 service:782709 sjr:4548492
interval: 1666666
start req: 1000000000082072664 gen: 1000000000078481391
recv req: 1000000000082073424
send resp: 1000000000082863022
ID:37 curr: 1000000000082863653 queue:3592664 service:789598 sjr:4382262
interval: 1666666
start req: 1000000000083577467 gen: 1000000000080148057
recv req: 1000000000083578238
send resp: 1000000000084357286
ID:38 curr: 1000000000084357928 queue:3430823 service:779048 sjr:4209871
interval: 1666666
start req: 1000000000085062099 gen: 1000000000081814723
recv req: 1000000000085062854
send resp: 1000000000085851474
ID:39 curr: 1000000000085852100 queue:3248757 service:788620 sjr:4037377
interval: 1666666
start req: 1000000000086566398 gen: 1000000000083481389
recv req: 1000000000086567189
send resp: 1000000000087343824
ID:40 curr: 1000000000087344412 queue:3086388 service:776635 sjr:3863023
interval: 1666666
start req: 1000000000088053688 gen: 1000000000085148055
recv req: 1000000000088054458
send resp: 1000000000088841537
ID:41 curr: 1000000000088842113 queue:2906979 service:787079 sjr:3694058
interval: 1666666
start req: 1000000000089551211 gen: 1000000000086814721
recv req: 1000000000089551990
send resp: 1000000000090332198
ID:42 curr: 1000000000090332822 queue:2737893 service:780208 sjr:3518101
interval: 1666666
start req: 1000000000091054613 gen: 1000000000088481387
recv req: 1000000000091055364
send resp: 1000000000091843129
ID:43 curr: 1000000000091843759 queue:2574607 service:787765 sjr:3362372
interval: 1666666
start req: 1000000000092557398 gen: 1000000000090148053
recv req: 1000000000092558164
send resp: 1000000000093335944
ID:44 curr: 1000000000093336568 queue:2410735 service:777780 sjr:3188515
interval: 1666666
start req: 1000000000094045328 gen: 1000000000091814719
recv req: 1000000000094046082
send resp: 1000000000094837366
ID:45 curr: 1000000000094837994 queue:2231991 service:791284 sjr:3023275
interval: 1666666
start req: 1000000000095545995 gen: 1000000000093481385
recv req: 1000000000095546740
send resp: 1000000000096328038
ID:46 curr: 1000000000096328731 queue:2066048 service:781298 sjr:2847346
interval: 1666666
start req: 1000000000097035858 gen: 1000000000095148051
recv req: 1000000000097036603
send resp: 1000000000097835286
ID:47 curr: 1000000000097835857 queue:1889123 service:798683 sjr:2687806
interval: 1666666
start req: 1000000000098552163 gen: 1000000000096814717
recv req: 1000000000098552916
send resp: 1000000000099334876
ID:48 curr: 1000000000099335456 queue:1738779 service:781960 sjr:2520739
interval: 1666666
start req: 1000000000100049268 gen: 1000000000098481383
recv req: 1000000000100050035
send resp: 1000000000100841111
ID:49 curr: 1000000000100841739 queue:1569280 service:791076 sjr:2360356
interval: 1666666
start req: 1000000000101551764 gen: 1000000000100148049
recv req: 1000000000101552518
send resp: 1000000000102329338
ID:50 curr: 1000000000102329986 queue:1405117 service:776820 sjr:2181937
interval: 1666666
start req: 1000000000103032454 gen: 1000000000101814715
recv req: 1000000000103033216
send resp: 1000000000103822294
ID:51 curr: 1000000000103822923 queue:1219130 service:789078 sjr:2008208
interval: 1666666
start req: 1000000000104535766 gen: 1000000000103481381
recv req: 1000000000104536511
send resp: 1000000000105316313
ID:52 curr: 1000000000105316973 queue:1055790 service:779802 sjr:1835592
interval: 1666666
start req: 1000000000106022426 gen: 1000000000105148047
recv req: 1000000000106023183
send resp: 1000000000106815849
ID:53 curr: 1000000000106816419 queue:875706 service:792666 sjr:1668372
interval: 1666666
start req: 1000000000107519392 gen: 1000000000106814713
recv req: 1000000000107520154
send resp: 1000000000108298288
ID:54 curr: 1000000000108298897 queue:706050 service:778134 sjr:1484184
interval: 1666666
start req: 1000000000109006070 gen: 1000000000108481379
recv req: 1000000000109006827
send resp: 1000000000109796476
ID:55 curr: 1000000000109797090 queue:526062 service:789649 sjr:1315711
interval: 1666666
start req: 1000000000110507057 gen: 1000000000110148045
recv req: 1000000000110507797
send resp: 1000000000111287508
ID:56 curr: 1000000000111288137 queue:360381 service:779711 sjr:1140092
interval: 1666666
start req: 1000000000111998056 gen: 1000000000111814711
recv req: 1000000000111998801
send resp: 1000000000112790342
ID:57 curr: 1000000000112790973 queue:184721 service:791541 sjr:976262
interval: 1666666
start req: 1000000000113496017 gen: 1000000000113481377
recv req: 1000000000113496759
send resp: 1000000000114275197
ID:58 curr: 1000000000114275831 queue:16016 service:778438 sjr:794454
interval: 1666666
start req: 1000000000114980853 gen: 1000000000115148043
recv req: 1000000000115148105
send resp: 1000000000115940818
ID:59 curr: 1000000000115941388 queue:632 service:792713 sjr:793345
interval: 1666666
start req: 1000000000116653638 gen: 1000000000116814709
recv req: 1000000000116814786
send resp: 1000000000117594984
ID:60 curr: 1000000000117595549 queue:642 service:780198 sjr:780840
interval: 1666666
start req: 1000000000118303010 gen: 1000000000118481375
recv req: 1000000000118481455
send resp: 1000000000119269249
ID:61 curr: 1000000000119269890 queue:721 service:787794 sjr:788515
interval: 1666666
start req: 1000000000119976610 gen: 1000000000120148041
recv req: 1000000000120148118
send resp: 1000000000120930866
ID:62 curr: 1000000000120931476 queue:687 service:782748 sjr:783435
interval: 1666666
start req: 1000000000121639201 gen: 1000000000121814707
recv req: 1000000000121814770
send resp: 1000000000122604150
ID:63 curr: 1000000000122604779 queue:692 service:789380 sjr:790072
interval: 1666666
start req: 1000000000123313784 gen: 1000000000123481373
recv req: 1000000000123481434
send resp: 1000000000124262700
ID:64 curr: 1000000000124263329 queue:690 service:781266 sjr:781956
interval: 1666666
start req: 1000000000124976571 gen: 1000000000125148039
recv req: 1000000000125148114
send resp: 1000000000125934954
ID:65 curr: 1000000000125935549 queue:670 service:786840 sjr:787510
interval: 1666666
start req: 1000000000126642564 gen: 1000000000126814705
recv req: 1000000000126814775
send resp: 1000000000127596181
ID:66 curr: 1000000000127596810 queue:699 service:781406 sjr:782105
interval: 1666666
start req: 1000000000128301892 gen: 1000000000128481371
recv req: 1000000000128481439
send resp: 1000000000129274069
ID:67 curr: 1000000000129274700 queue:699 service:792630 sjr:793329
interval: 1666666
start req: 1000000000129990191 gen: 1000000000130148037
recv req: 1000000000130148091
send resp: 1000000000130929044
ID:68 curr: 1000000000130929629 queue:639 service:780953 sjr:781592
interval: 1666666
start req: 1000000000131639022 gen: 1000000000131814703
recv req: 1000000000131814787
send resp: 1000000000132603491
ID:69 curr: 1000000000132604120 queue:713 service:788704 sjr:789417
interval: 1666666
start req: 1000000000133313337 gen: 1000000000133481369
recv req: 1000000000133481425
send resp: 1000000000134261254
ID:70 curr: 1000000000134261890 queue:692 service:779829 sjr:780521
interval: 1666666
start req: 1000000000134968878 gen: 1000000000135148035
recv req: 1000000000135148106
send resp: 1000000000135943045
ID:71 curr: 1000000000135943627 queue:653 service:794939 sjr:795592
interval: 1666666
start req: 1000000000136653220 gen: 1000000000136814701
recv req: 1000000000136814759
send resp: 1000000000137594774
ID:72 curr: 1000000000137595402 queue:686 service:780015 sjr:780701
interval: 1666666
start req: 1000000000138305978 gen: 1000000000138481367
recv req: 1000000000138481433
send resp: 1000000000139274530
ID:73 curr: 1000000000139275161 queue:697 service:793097 sjr:793794
interval: 1666666
start req: 1000000000139982835 gen: 1000000000140148033
recv req: 1000000000140148107
send resp: 1000000000140928681
ID:74 curr: 1000000000140929263 queue:656 service:780574 sjr:781230
interval: 1666666
start req: 1000000000141636842 gen: 1000000000141814699
recv req: 1000000000141814774
send resp: 1000000000142604451
ID:75 curr: 1000000000142605083 queue:707 service:789677 sjr:790384
interval: 1666666
start req: 1000000000143312178 gen: 1000000000143481365
recv req: 1000000000143481433
send resp: 1000000000144264391
ID:76 curr: 1000000000144265020 queue:697 service:782958 sjr:783655
interval: 1666666
start req: 1000000000144980957 gen: 1000000000145148031
recv req: 1000000000145148105
send resp: 1000000000145937851
ID:77 curr: 1000000000145938460 queue:683 service:789746 sjr:790429
interval: 1666666
start req: 1000000000146643425 gen: 1000000000146814697
recv req: 1000000000146814769
send resp: 1000000000147596371
ID:78 curr: 1000000000147597008 queue:709 service:781602 sjr:782311
interval: 1666666
start req: 1000000000148313042 gen: 1000000000148481363
recv req: 1000000000148481438
send resp: 1000000000149266290
ID:79 curr: 1000000000149266921 queue:706 service:784852 sjr:785558
interval: 1666666
start req: 1000000000149976307 gen: 1000000000150148029
recv req: 1000000000150148099
send resp: 1000000000150927470
ID:80 curr: 1000000000150928043 queue:643 service:779371 sjr:780014
interval: 1666666
start req: 1000000000151634421 gen: 1000000000151814695
recv req: 1000000000151814772
send resp: 1000000000152603431
ID:81 curr: 1000000000152604062 queue:708 service:788659 sjr:789367
interval: 1666666
start req: 1000000000153321259 gen: 1000000000153481361
recv req: 1000000000153481423
send resp: 1000000000154261364
ID:82 curr: 1000000000154261992 queue:690 service:779941 sjr:780631
interval: 1666666
start req: 1000000000154975444 gen: 1000000000155148027
recv req: 1000000000155148110
send resp: 1000000000155935815
ID:83 curr: 1000000000155936416 queue:684 service:787705 sjr:788389
interval: 1666666
start req: 1000000000156646830 gen: 1000000000156814693
recv req: 1000000000156814753
send resp: 1000000000157593553
ID:84 curr: 1000000000157594187 queue:694 service:778800 sjr:779494
interval: 1666666
start req: 1000000000158303896 gen: 1000000000158481359
recv req: 1000000000158481432
send resp: 1000000000159267519
ID:85 curr: 1000000000159268194 queue:748 service:786087 sjr:786835
interval: 1666666
start req: 1000000000159974507 gen: 1000000000160148025
recv req: 1000000000160148090
send resp: 1000000000160931138
ID:86 curr: 1000000000160931720 queue:647 service:783048 sjr:783695
interval: 1666666
start req: 1000000000161646288 gen: 1000000000161814691
recv req: 1000000000161814781
send resp: 1000000000162602568
ID:87 curr: 1000000000162603205 queue:727 service:787787 sjr:788514
interval: 1666666
start req: 1000000000163313278 gen: 1000000000163481357
recv req: 1000000000163481409
send resp: 1000000000164298326
ID:88 curr: 1000000000164298955 queue:681 service:816917 sjr:817598
interval: 1666666
start req: 1000000000165007827 gen: 1000000000165148023
recv req: 1000000000165148104
send resp: 1000000000165935663
ID:89 curr: 1000000000165936231 queue:649 service:787559 sjr:788208
interval: 1666666
start req: 1000000000166639909 gen: 1000000000166814689
recv req: 1000000000166814765
send resp: 1000000000167596024
ID:90 curr: 1000000000167596646 queue:698 service:781259 sjr:781957
interval: 1666666
start req: 1000000000168303146 gen: 1000000000168481355
recv req: 1000000000168481435
send resp: 1000000000169286566
ID:91 curr: 1000000000169287253 queue:767 service:805131 sjr:805898
interval: 1666666
start req: 1000000000169990868 gen: 1000000000170148021
recv req: 1000000000170148091
send resp: 1000000000170931960
ID:92 curr: 1000000000170932545 queue:655 service:783869 sjr:784524
interval: 1666666
start req: 1000000000171633325 gen: 1000000000171814687
recv req: 1000000000171814752
send resp: 1000000000172618454
ID:93 curr: 1000000000172619088 queue:699 service:803702 sjr:804401
interval: 1666666
start req: 1000000000173321522 gen: 1000000000173481353
recv req: 1000000000173481426
send resp: 1000000000174294809
ID:94 curr: 1000000000174295448 queue:712 service:813383 sjr:814095
interval: 1666666
start req: 1000000000175002112 gen: 1000000000175148019
recv req: 1000000000175148109
send resp: 1000000000175947154
ID:95 curr: 1000000000175947734 queue:670 service:799045 sjr:799715
interval: 1666666
start req: 1000000000176665858 gen: 1000000000176814685
recv req: 1000000000176814774
send resp: 1000000000177591916
ID:96 curr: 1000000000177592544 queue:717 service:777142 sjr:777859
interval: 1666666
start req: 1000000000178300352 gen: 1000000000178481351
recv req: 1000000000178481429
send resp: 1000000000179282493
ID:97 curr: 1000000000179283126 queue:711 service:801064 sjr:801775
interval: 1666666
start req: 1000000000179993351 gen: 1000000000180148017
recv req: 1000000000180148102
send resp: 1000000000180933027
ID:98 curr: 1000000000180933601 queue:659 service:784925 sjr:785584
interval: 1666666
start req: 1000000000181646170 gen: 1000000000181814683
recv req: 1000000000181814759
send resp: 1000000000182650988
ID:99 curr: 1000000000182651617 queue:705 service:836229 sjr:836934
interval: 1666666
start req: 1000000000183366332 gen: 1000000000183481349
recv req: 1000000000183481432
send resp: 1000000000184258447
ID:100 curr: 1000000000184259069 queue:705 service:777015 sjr:777720
interval: 1666666
start req: 1000000000184970878 gen: 1000000000185148015
recv req: 1000000000185148081
send resp: 1000000000185948289
ID:101 curr: 1000000000185948900 queue:677 service:800208 sjr:800885
interval: 1666666
start req: 1000000000186662856 gen: 1000000000186814681
recv req: 1000000000186814746
send resp: 1000000000187589131
ID:102 curr: 1000000000187589700 queue:634 service:774385 sjr:775019
interval: 1666666
start req: 1000000000188301694 gen: 1000000000188481347
recv req: 1000000000188481421
send resp: 1000000000189281188
ID:103 curr: 1000000000189281819 queue:705 service:799767 sjr:800472
interval: 1666666
start req: 1000000000190000539 gen: 1000000000190148013
recv req: 1000000000190148088
send resp: 1000000000190960432
ID:104 curr: 1000000000190961116 queue:759 service:812344 sjr:813103
interval: 1666666
start req: 1000000000191687960 gen: 1000000000191814679
recv req: 1000000000191814762
send resp: 1000000000192610868
ID:105 curr: 1000000000192611449 queue:664 service:796106 sjr:796770
interval: 1666666
start req: 1000000000193331433 gen: 1000000000193481345
recv req: 1000000000193481434
send resp: 1000000000194254763
ID:106 curr: 1000000000194255391 queue:717 service:773329 sjr:774046
interval: 1666666
start req: 1000000000194977386 gen: 1000000000195148011
recv req: 1000000000195148095
send resp: 1000000000195945519
ID:107 curr: 1000000000195946158 queue:723 service:797424 sjr:798147
interval: 1666666
start req: 1000000000196663908 gen: 1000000000196814677
recv req: 1000000000196814764
send resp: 1000000000197588157
ID:108 curr: 1000000000197588721 queue:651 service:773393 sjr:774044
interval: 1666666
start req: 1000000000198299596 gen: 1000000000198481343
recv req: 1000000000198481424
send resp: 1000000000199278042
ID:109 curr: 1000000000199278677 queue:716 service:796618 sjr:797334
interval: 1666666
start req: 1000000000199994368 gen: 1000000000200148009
recv req: 1000000000200148095
send resp: 1000000000200958145
ID:110 curr: 1000000000200958786 queue:727 service:810050 sjr:810777
interval: 1666666
start req: 1000000000201694650 gen: 1000000000201814675
recv req: 1000000000201814749
send resp: 1000000000202615152
ID:111 curr: 1000000000202615787 queue:709 service:800403 sjr:801112
interval: 1666666
start req: 1000000000203350754 gen: 1000000000203481341
recv req: 1000000000203481427
send resp: 1000000000204254759
ID:112 curr: 1000000000204255387 queue:714 service:773332 sjr:774046
interval: 1666666
start req: 1000000000204981330 gen: 1000000000205148007
recv req: 1000000000205148081
send resp: 1000000000205944506
ID:113 curr: 1000000000205945133 queue:701 service:796425 sjr:797126
interval: 1666666
start req: 1000000000206674655 gen: 1000000000206814673
recv req: 1000000000206814751
send resp: 1000000000207589598
ID:114 curr: 1000000000207590178 queue:658 service:774847 sjr:775505
interval: 1666666
start req: 1000000000208317271 gen: 1000000000208481339
recv req: 1000000000208481423
send resp: 1000000000209317897
ID:115 curr: 1000000000209318526 queue:713 service:836474 sjr:837187
interval: 1666666
start req: 1000000000210058263 gen: 1000000000210148005
recv req: 1000000000210148081
send resp: 1000000000210915601
ID:116 curr: 1000000000210916230 queue:705 service:767520 sjr:768225
interval: 1666666
start req: 1000000000211639945 gen: 1000000000211814671
recv req: 1000000000211814754
send resp: 1000000000212609192
ID:117 curr: 1000000000212609763 queue:654 service:794438 sjr:795092
interval: 1666666
start req: 1000000000213349699 gen: 1000000000213481337
recv req: 1000000000213481406
send resp: 1000000000214251357
ID:118 curr: 1000000000214251927 queue:639 service:769951 sjr:770590
interval: 1666666
start req: 1000000000214984119 gen: 1000000000215148003
recv req: 1000000000215148067
send resp: 1000000000215940311
ID:119 curr: 1000000000215940942 queue:695 service:792244 sjr:792939
interval: 1666666
start req: 1000000000216674211 gen: 1000000000216814669
recv req: 1000000000216814737
send resp: 1000000000217624368
ID:120 curr: 1000000000217625005 queue:705 service:809631 sjr:810336
interval: 1666666
start req: 1000000000218368620 gen: 1000000000218481335
recv req: 1000000000218481413
send resp: 1000000000219278867
ID:121 curr: 1000000000219279435 queue:646 service:797454 sjr:798100
interval: 1666666
start req: 1000000000220023810 gen: 1000000000220148001
recv req: 1000000000220148083
send resp: 1000000000220918939
ID:122 curr: 1000000000220919566 queue:709 service:770856 sjr:771565
interval: 1666666
start req: 1000000000221660315 gen: 1000000000221814667
recv req: 1000000000221814738
send resp: 1000000000222610428
ID:123 curr: 1000000000222611057 queue:700 service:795690 sjr:796390
interval: 1666666
start req: 1000000000223365195 gen: 1000000000223481333
recv req: 1000000000223481407
send resp: 1000000000224253587
ID:124 curr: 1000000000224254170 queue:657 service:772180 sjr:772837
interval: 1666666
start req: 1000000000225003911 gen: 1000000000225147999
recv req: 1000000000225148088
send resp: 1000000000225985279
ID:125 curr: 1000000000225985916 queue:726 service:837191 sjr:837917
interval: 1666666
start req: 1000000000226750353 gen: 1000000000226814665
recv req: 1000000000226814741
send resp: 1000000000227585760
ID:126 curr: 1000000000227586387 queue:703 service:771019 sjr:771722
interval: 1666666
start req: 1000000000228333680 gen: 1000000000228481331
recv req: 1000000000228481398
send resp: 1000000000229283001
ID:127 curr: 1000000000229283632 queue:698 service:801603 sjr:802301
interval: 1666666
start req: 1000000000230039030 gen: 1000000000230147997
recv req: 1000000000230148084
send resp: 1000000000230920241
ID:128 curr: 1000000000230920811 queue:657 service:772157 sjr:772814
interval: 1666666
start req: 1000000000231678681 gen: 1000000000231814663
recv req: 1000000000231814724
send resp: 1000000000234677591
ID:129 curr: 1000000000234678281 queue:751 service:2862867 sjr:2863618
interval: 1666666
start req: 1000000000235595101 gen: 1000000000233481329
recv req: 1000000000235595908
send resp: 1000000000236450747
ID:130 curr: 1000000000236451455 queue:2115287 service:854839 sjr:2970126
interval: 1666666
start req: 1000000000237368372 gen: 1000000000235147995
recv req: 1000000000237369180
send resp: 1000000000238235452
ID:131 curr: 1000000000238236119 queue:2221852 service:866272 sjr:3088124
interval: 1666666
start req: 1000000000239152967 gen: 1000000000236814661
recv req: 1000000000239153741
send resp: 1000000000240006075
ID:132 curr: 1000000000240006757 queue:2339762 service:852334 sjr:3192096
interval: 1666666
start req: 1000000000240923726 gen: 1000000000238481327
recv req: 1000000000240924530
send resp: 1000000000241786922
ID:133 curr: 1000000000241787541 queue:2443822 service:862392 sjr:3306214
interval: 1666666
start req: 1000000000242704433 gen: 1000000000240147993
recv req: 1000000000242705245
send resp: 1000000000243554496
ID:134 curr: 1000000000243555100 queue:2557856 service:849251 sjr:3407107
interval: 1666666
start req: 1000000000244472064 gen: 1000000000241814659
recv req: 1000000000244472875
send resp: 1000000000245335374
ID:135 curr: 1000000000245336043 queue:2658885 service:862499 sjr:3521384
interval: 1666666
start req: 1000000000246252869 gen: 1000000000243481325
recv req: 1000000000246253664
send resp: 1000000000247108678
ID:136 curr: 1000000000247109363 queue:2773024 service:855014 sjr:3628038
interval: 1666666
start req: 1000000000248026452 gen: 1000000000245147991
recv req: 1000000000248027220
send resp: 1000000000248887372
ID:137 curr: 1000000000248888047 queue:2879904 service:860152 sjr:3740056
interval: 1666666
start req: 1000000000249804897 gen: 1000000000246814657
recv req: 1000000000249805697
send resp: 1000000000250657602
ID:138 curr: 1000000000250658243 queue:2991681 service:851905 sjr:3843586
interval: 1666666
start req: 1000000000251575160 gen: 1000000000248481323
recv req: 1000000000251575962
send resp: 1000000000252437265
ID:139 curr: 1000000000252437942 queue:3095316 service:861303 sjr:3956619
interval: 1666666
start req: 1000000000253354811 gen: 1000000000250147989
recv req: 1000000000253355580
send resp: 1000000000254208387
ID:140 curr: 1000000000254209016 queue:3208220 service:852807 sjr:4061027
interval: 1666666
start req: 1000000000255125978 gen: 1000000000251814655
recv req: 1000000000255126769
send resp: 1000000000255989107
ID:141 curr: 1000000000255989727 queue:3312734 service:862338 sjr:4175072
interval: 1666666
start req: 1000000000256906607 gen: 1000000000253481321
recv req: 1000000000256907358
send resp: 1000000000257758977
ID:142 curr: 1000000000257759613 queue:3426673 service:851619 sjr:4278292
interval: 1666666
start req: 1000000000258676508 gen: 1000000000255147987
recv req: 1000000000258677309
send resp: 1000000000259538555
ID:143 curr: 1000000000259539227 queue:3529994 service:861246 sjr:4391240
interval: 1666666
start req: 1000000000260456073 gen: 1000000000256814653
recv req: 1000000000260456829
send resp: 1000000000261307011
ID:144 curr: 1000000000261307693 queue:3642858 service:850182 sjr:4493040
interval: 1666666
start req: 1000000000262224788 gen: 1000000000258481319
recv req: 1000000000262225594
send resp: 1000000000263088073
ID:145 curr: 1000000000263088744 queue:3744946 service:862479 sjr:4607425
interval: 1666666
start req: 1000000000264005574 gen: 1000000000260147985
recv req: 1000000000264006374
send resp: 1000000000264859693
ID:146 curr: 1000000000264860353 queue:3859049 service:853319 sjr:4712368
interval: 1666666
start req: 1000000000265777285 gen: 1000000000261814651
recv req: 1000000000265778080
send resp: 1000000000266639179
ID:147 curr: 1000000000266639798 queue:3964048 service:861099 sjr:4825147
interval: 1666666
start req: 1000000000267556678 gen: 1000000000263481317
recv req: 1000000000267557478
send resp: 1000000000268408616
ID:148 curr: 1000000000268409238 queue:4076783 service:851138 sjr:4927921
interval: 1666666
start req: 1000000000269326206 gen: 1000000000265147983
recv req: 1000000000269326992
send resp: 1000000000270188435
ID:149 curr: 1000000000270189108 queue:4179682 service:861443 sjr:5041125
interval: 1666666
start req: 1000000000271105925 gen: 1000000000266814649
recv req: 1000000000271106679
send resp: 1000000000271958360
ID:150 curr: 1000000000271958990 queue:4292660 service:851681 sjr:5144341
interval: 1666666
start req: 1000000000272875887 gen: 1000000000268481315
recv req: 1000000000272876664
send resp: 1000000000273738552
ID:151 curr: 1000000000273739221 queue:4396018 service:861888 sjr:5257906
interval: 1666666
start req: 1000000000274656066 gen: 1000000000270147981
recv req: 1000000000274656865
send resp: 1000000000275511472
ID:152 curr: 1000000000275512154 queue:4509566 service:854607 sjr:5364173
interval: 1666666
start req: 1000000000276429308 gen: 1000000000271814647
recv req: 1000000000276430065
send resp: 1000000000277292620
ID:153 curr: 1000000000277293246 queue:4616044 service:862555 sjr:5478599
interval: 1666666
start req: 1000000000278210090 gen: 1000000000273481313
recv req: 1000000000278210891
send resp: 1000000000279062402
ID:154 curr: 1000000000279063013 queue:4730189 service:851511 sjr:5581700
interval: 1666666
start req: 1000000000279979942 gen: 1000000000275147979
recv req: 1000000000279980756
send resp: 1000000000280840691
ID:155 curr: 1000000000280841290 queue:4833376 service:859935 sjr:5693311
interval: 1666666
start req: 1000000000281758167 gen: 1000000000276814645
recv req: 1000000000281758936
send resp: 1000000000282610726
ID:156 curr: 1000000000282611388 queue:4944953 service:851790 sjr:5796743
interval: 1666666
start req: 1000000000283528302 gen: 1000000000278481311
recv req: 1000000000283529104
send resp: 1000000000284386459
ID:157 curr: 1000000000284387132 queue:5048466 service:857355 sjr:5905821
interval: 1666666
start req: 1000000000285303963 gen: 1000000000280147977
recv req: 1000000000285304762
send resp: 1000000000286153796
ID:158 curr: 1000000000286154466 queue:5157455 service:849034 sjr:6006489
interval: 1666666
start req: 1000000000287071363 gen: 1000000000281814643
recv req: 1000000000287072153
send resp: 1000000000287930735
ID:159 curr: 1000000000287931369 queue:5258144 service:858582 sjr:6116726
interval: 1666666
start req: 1000000000288848250 gen: 1000000000283481309
recv req: 1000000000288849040
send resp: 1000000000289699721
ID:160 curr: 1000000000289700336 queue:5368346 service:850681 sjr:6219027
interval: 1666666
start req: 1000000000290617452 gen: 1000000000285147975
recv req: 1000000000290618243
send resp: 1000000000291477695
ID:161 curr: 1000000000291478311 queue:5470884 service:859452 sjr:6330336
interval: 1666666
start req: 1000000000292395171 gen: 1000000000286814641
recv req: 1000000000292395927
send resp: 1000000000293247699
ID:162 curr: 1000000000293248324 queue:5581911 service:851772 sjr:6433683
interval: 1666666
start req: 1000000000294165194 gen: 1000000000288481307
recv req: 1000000000294165939
send resp: 1000000000295024795
ID:163 curr: 1000000000295025432 queue:5685269 service:858856 sjr:6544125
interval: 1666666
start req: 1000000000295942266 gen: 1000000000290147973
recv req: 1000000000295943020
send resp: 1000000000296794758
ID:164 curr: 1000000000296795439 queue:5795728 service:851738 sjr:6647466
interval: 1666666
start req: 1000000000297712323 gen: 1000000000291814639
recv req: 1000000000297713116
send resp: 1000000000298572136
ID:165 curr: 1000000000298572805 queue:5899146 service:859020 sjr:6758166
interval: 1666666
start req: 1000000000299489649 gen: 1000000000293481305
recv req: 1000000000299490448
send resp: 1000000000300342176
ID:166 curr: 1000000000300342862 queue:6009829 service:851728 sjr:6861557
interval: 1666666
start req: 1000000000301259806 gen: 1000000000295147971
recv req: 1000000000301260581
send resp: 1000000000302117405
ID:167 curr: 1000000000302118004 queue:6113209 service:856824 sjr:6970033
interval: 1666666
start req: 1000000000303034868 gen: 1000000000296814637
recv req: 1000000000303035668
send resp: 1000000000303889460
ID:168 curr: 1000000000303890095 queue:6221666 service:853792 sjr:7075458
interval: 1666666
start req: 1000000000304807235 gen: 1000000000298481303
recv req: 1000000000304808027
send resp: 1000000000305668189
ID:169 curr: 1000000000305668878 queue:6327413 service:860162 sjr:7187575
interval: 1666666
start req: 1000000000306585743 gen: 1000000000300147969
recv req: 1000000000306586500
send resp: 1000000000307439198
ID:170 curr: 1000000000307439872 queue:6439205 service:852698 sjr:7291903
interval: 1666666
start req: 1000000000308356775 gen: 1000000000301814635
recv req: 1000000000308357569
send resp: 1000000000309216656
ID:171 curr: 1000000000309217296 queue:6543574 service:859087 sjr:7402661
interval: 1666666
start req: 1000000000310134138 gen: 1000000000303481301
recv req: 1000000000310134881
send resp: 1000000000310985520
ID:172 curr: 1000000000310986188 queue:6654248 service:850639 sjr:7504887
interval: 1666666
start req: 1000000000311903107 gen: 1000000000305147967
recv req: 1000000000311903908
send resp: 1000000000312764463
ID:173 curr: 1000000000312765117 queue:6756595 service:860555 sjr:7617150
interval: 1666666
start req: 1000000000313682025 gen: 1000000000306814633
recv req: 1000000000313682775
send resp: 1000000000314533875
ID:174 curr: 1000000000314534490 queue:6868757 service:851100 sjr:7719857
interval: 1666666
start req: 1000000000315451473 gen: 1000000000308481299
recv req: 1000000000315452264
send resp: 1000000000316312948
ID:175 curr: 1000000000316313547 queue:6971564 service:860684 sjr:7832248
interval: 1666666
start req: 1000000000317230435 gen: 1000000000310147965
recv req: 1000000000317231172
send resp: 1000000000318082402
ID:176 curr: 1000000000318083016 queue:7083821 service:851230 sjr:7935051
interval: 1666666
start req: 1000000000319000162 gen: 1000000000311814631
recv req: 1000000000319000953
send resp: 1000000000319860362
ID:177 curr: 1000000000319861033 queue:7186993 service:859409 sjr:8046402
interval: 1666666
start req: 1000000000320777878 gen: 1000000000313481297
recv req: 1000000000320778621
send resp: 1000000000321634158
ID:178 curr: 1000000000321634843 queue:7298009 service:855537 sjr:8153546
interval: 1666666
start req: 1000000000322551677 gen: 1000000000315147963
recv req: 1000000000322552420
send resp: 1000000000323413935
ID:179 curr: 1000000000323414573 queue:7405095 service:861515 sjr:8266610
interval: 1666666
start req: 1000000000324331421 gen: 1000000000316814629
recv req: 1000000000324332208
send resp: 1000000000325183648
ID:180 curr: 1000000000325184326 queue:7518257 service:851440 sjr:8369697
interval: 1666666
start req: 1000000000326101282 gen: 1000000000318481295
recv req: 1000000000326102061
send resp: 1000000000326962348
ID:181 curr: 1000000000326962966 queue:7621384 service:860287 sjr:8481671
interval: 1666666
start req: 1000000000327879825 gen: 1000000000320147961
recv req: 1000000000327880614
send resp: 1000000000328731275
ID:182 curr: 1000000000328731903 queue:7733281 service:850661 sjr:8583942
interval: 1666666
start req: 1000000000329648866 gen: 1000000000321814627
recv req: 1000000000329649662
send resp: 1000000000330509826
ID:183 curr: 1000000000330510425 queue:7835634 service:860164 sjr:8695798
interval: 1666666
start req: 1000000000331427309 gen: 1000000000323481293
recv req: 1000000000331428077
send resp: 1000000000332283855
ID:184 curr: 1000000000332284538 queue:7947467 service:855778 sjr:8803245
interval: 1666666
start req: 1000000000333201623 gen: 1000000000325147959
recv req: 1000000000333202411
send resp: 1000000000334063316
ID:185 curr: 1000000000334063984 queue:8055120 service:860905 sjr:8916025
interval: 1666666
start req: 1000000000334980800 gen: 1000000000326814625
recv req: 1000000000334981554
send resp: 1000000000335833103
ID:186 curr: 1000000000335833779 queue:8167605 service:851549 sjr:9019154
interval: 1666666
start req: 1000000000336750694 gen: 1000000000328481291
recv req: 1000000000336751489
send resp: 1000000000337610074
ID:187 curr: 1000000000337610746 queue:8270870 service:858585 sjr:9129455
interval: 1666666
start req: 1000000000338527651 gen: 1000000000330147957
recv req: 1000000000338528391
send resp: 1000000000339381600
ID:188 curr: 1000000000339382203 queue:8381037 service:853209 sjr:9234246
interval: 1666666
start req: 1000000000340299142 gen: 1000000000331814623
recv req: 1000000000340299933
send resp: 1000000000341161589
ID:189 curr: 1000000000341162212 queue:8485933 service:861656 sjr:9347589
interval: 1666666
start req: 1000000000342079079 gen: 1000000000333481289
recv req: 1000000000342079825
send resp: 1000000000342932837
ID:190 curr: 1000000000342933464 queue:8599163 service:853012 sjr:9452175
interval: 1666666
start req: 1000000000343850413 gen: 1000000000335147955
recv req: 1000000000343851216
send resp: 1000000000344713383
ID:191 curr: 1000000000344714060 queue:8703938 service:862167 sjr:9566105
interval: 1666666
start req: 1000000000345630879 gen: 1000000000336814621
recv req: 1000000000345631689
send resp: 1000000000346484076
ID:192 curr: 1000000000346484709 queue:8817701 service:852387 sjr:9670088
interval: 1666666
start req: 1000000000347401819 gen: 1000000000338481287
recv req: 1000000000347402621
send resp: 1000000000348264581
ID:193 curr: 1000000000348265255 queue:8922008 service:861960 sjr:9783968
interval: 1666666
start req: 1000000000349182065 gen: 1000000000340147953
recv req: 1000000000349182876
send resp: 1000000000350036415
ID:194 curr: 1000000000350037096 queue:9035604 service:853539 sjr:9889143
interval: 1666666
start req: 1000000000350953988 gen: 1000000000341814619
recv req: 1000000000350954757
send resp: 1000000000351813506
ID:195 curr: 1000000000351814123 queue:9140755 service:858749 sjr:9999504
interval: 1666666
start req: 1000000000352731007 gen: 1000000000343481285
recv req: 1000000000352731796
send resp: 1000000000353579753
ID:196 curr: 1000000000353580351 queue:9251109 service:847957 sjr:10099066
interval: 1666666
start req: 1000000000354497331 gen: 1000000000345147951
recv req: 1000000000354498122
send resp: 1000000000355355819
ID:197 curr: 1000000000355356442 queue:9350794 service:857697 sjr:10208491
interval: 1666666
start req: 1000000000356273322 gen: 1000000000346814617
recv req: 1000000000356274106
send resp: 1000000000357124505
ID:198 curr: 1000000000357125173 queue:9460157 service:850399 sjr:10310556
interval: 1666666
start req: 1000000000358042122 gen: 1000000000348481283
recv req: 1000000000358042906
send resp: 1000000000358903382
ID:199 curr: 1000000000358904049 queue:9562290 service:860476 sjr:10422766
interval: 1666666
start req: 1000000000359820904 gen: 1000000000350147949
recv req: 1000000000359821642
send resp: 1000000000360670940
ID:200 curr: 1000000000360671576 queue:9674329 service:849298 sjr:10523627
interval: 1666666
start req: 1000000000361588677 gen: 1000000000351814615
recv req: 1000000000361589471
send resp: 1000000000362448354
ID:201 curr: 1000000000362449021 queue:9775523 service:858883 sjr:10634406
interval: 1666666
start req: 1000000000363365914 gen: 1000000000353481281
recv req: 1000000000363366653
send resp: 1000000000364216018
ID:202 curr: 1000000000364216650 queue:9886004 service:849365 sjr:10735369
interval: 1666666
start req: 1000000000365133604 gen: 1000000000355147947
recv req: 1000000000365134411
send resp: 1000000000365994878
ID:203 curr: 1000000000365995498 queue:9987084 service:860467 sjr:10847551
interval: 1666666
start req: 1000000000366912348 gen: 1000000000356814613
recv req: 1000000000366913128
send resp: 1000000000367762301
ID:204 curr: 1000000000367762899 queue:10099113 service:849173 sjr:10948286
interval: 1666666
start req: 1000000000368679877 gen: 1000000000358481279
recv req: 1000000000368680668
send resp: 1000000000369541051
ID:205 curr: 1000000000369541718 queue:10200056 service:860383 sjr:11060439
interval: 1666666
start req: 1000000000370458587 gen: 1000000000360147945
recv req: 1000000000370459325
send resp: 1000000000371308217
ID:206 curr: 1000000000371308886 queue:10312049 service:848892 sjr:11160941
interval: 1666666
start req: 1000000000372225787 gen: 1000000000361814611
recv req: 1000000000372226582
send resp: 1000000000373084970
ID:207 curr: 1000000000373085637 queue:10412638 service:858388 sjr:11271026
interval: 1666666
start req: 1000000000374002483 gen: 1000000000363481277
recv req: 1000000000374003250
send resp: 1000000000374853929
ID:208 curr: 1000000000374854600 queue:10522644 service:850679 sjr:11373323
interval: 1666666
start req: 1000000000375771732 gen: 1000000000365147943
recv req: 1000000000375772505
send resp: 1000000000376633372
ID:209 curr: 1000000000376633985 queue:10625175 service:860867 sjr:11486042
interval: 1666666
start req: 1000000000377550870 gen: 1000000000366814609
recv req: 1000000000377551615
send resp: 1000000000378402501
ID:210 curr: 1000000000378403139 queue:10737644 service:850886 sjr:11588530
interval: 1666666
start req: 1000000000379320026 gen: 1000000000368481275
recv req: 1000000000379320760
send resp: 1000000000380180039
ID:211 curr: 1000000000380180655 queue:10840101 service:859279 sjr:11699380
interval: 1666666
start req: 1000000000381097536 gen: 1000000000370147941
recv req: 1000000000381098330
send resp: 1000000000381947542
ID:212 curr: 1000000000381948172 queue:10951019 service:849212 sjr:11800231
interval: 1666666
start req: 1000000000382865097 gen: 1000000000371814607
recv req: 1000000000382865874
send resp: 1000000000383725503
ID:213 curr: 1000000000383726172 queue:11051936 service:859629 sjr:11911565
interval: 1666666
start req: 1000000000384643016 gen: 1000000000373481273
recv req: 1000000000384643792
send resp: 1000000000385495264
ID:214 curr: 1000000000385495932 queue:11163187 service:851472 sjr:12014659
interval: 1666666
start req: 1000000000386412845 gen: 1000000000375147939
recv req: 1000000000386413621
send resp: 1000000000387273840
ID:215 curr: 1000000000387274507 queue:11266349 service:860219 sjr:12126568
interval: 1666666
start req: 1000000000388191410 gen: 1000000000376814605
recv req: 1000000000388192188
send resp: 1000000000389043248
ID:216 curr: 1000000000389043846 queue:11378181 service:851060 sjr:12229241
interval: 1666666
start req: 1000000000389960989 gen: 1000000000378481271
recv req: 1000000000389961767
send resp: 1000000000390820898
ID:217 curr: 1000000000390821511 queue:11481109 service:859131 sjr:12340240
interval: 1666666
start req: 1000000000391738393 gen: 1000000000380147937
recv req: 1000000000391739132
send resp: 1000000000392592259
ID:218 curr: 1000000000392592887 queue:11591823 service:853127 sjr:12444950
interval: 1666666
start req: 1000000000393509847 gen: 1000000000381814603
recv req: 1000000000393510633
send resp: 1000000000394370058
ID:219 curr: 1000000000394370725 queue:11696697 service:859425 sjr:12556122
interval: 1666666
start req: 1000000000395287568 gen: 1000000000383481269
recv req: 1000000000395288300
send resp: 1000000000396140532
ID:220 curr: 1000000000396141212 queue:11807711 service:852232 sjr:12659943
interval: 1666666
start req: 1000000000397058039 gen: 1000000000385147935
recv req: 1000000000397058782
send resp: 1000000000397918244
ID:221 curr: 1000000000397918878 queue:11911481 service:859462 sjr:12770943
interval: 1666666
start req: 1000000000398835752 gen: 1000000000386814601
recv req: 1000000000398836484
send resp: 1000000000399686679
ID:222 curr: 1000000000399687347 queue:12022551 service:850195 sjr:12872746
interval: 1666666
start req: 1000000000400604305 gen: 1000000000388481267
recv req: 1000000000400605078
send resp: 1000000000401466954
ID:223 curr: 1000000000401467572 queue:12124429 service:861876 sjr:12986305
interval: 1666666
start req: 1000000000402384448 gen: 1000000000390147933
recv req: 1000000000402385182
send resp: 1000000000403238146
ID:224 curr: 1000000000403238763 queue:12237866 service:852964 sjr:13090830
interval: 1666666
start req: 1000000000404155899 gen: 1000000000391814599
recv req: 1000000000404156684
send resp: 1000000000405014830
ID:225 curr: 1000000000405015477 queue:12342732 service:858146 sjr:13200878
interval: 1666666
start req: 1000000000405932310 gen: 1000000000393481265
recv req: 1000000000405933097
send resp: 1000000000406786103
ID:226 curr: 1000000000406786786 queue:12452515 service:853006 sjr:13305521
interval: 1666666
start req: 1000000000407703640 gen: 1000000000395147931
recv req: 1000000000407704416
send resp: 1000000000408565133
ID:227 curr: 1000000000408565802 queue:12557154 service:860717 sjr:13417871
interval: 1666666
start req: 1000000000409482668 gen: 1000000000396814597
recv req: 1000000000409483400
send resp: 1000000000410335340
ID:228 curr: 1000000000410336002 queue:12669465 service:851940 sjr:13521405
interval: 1666666
start req: 1000000000411252918 gen: 1000000000398481263
recv req: 1000000000411253689
send resp: 1000000000412114313
ID:229 curr: 1000000000412114950 queue:12773063 service:860624 sjr:13633687
interval: 1666666
start req: 1000000000413031830 gen: 1000000000400147929
recv req: 1000000000413032624
send resp: 1000000000413884218
ID:230 curr: 1000000000413884827 queue:12885304 service:851594 sjr:13736898
interval: 1666666
start req: 1000000000414801790 gen: 1000000000401814595
recv req: 1000000000414802585
send resp: 1000000000415665015
ID:231 curr: 1000000000415665642 queue:12988617 service:862430 sjr:13851047
interval: 1666666
start req: 1000000000416582529 gen: 1000000000403481261
recv req: 1000000000416583323
send resp: 1000000000417435745
ID:232 curr: 1000000000417436413 queue:13102730 service:852422 sjr:13955152
interval: 1666666
start req: 1000000000418353507 gen: 1000000000405147927
recv req: 1000000000418354302
send resp: 1000000000419213153
ID:233 curr: 1000000000419213790 queue:13207012 service:858851 sjr:14065863
interval: 1666666
start req: 1000000000420130658 gen: 1000000000406814593
recv req: 1000000000420131406
send resp: 1000000000420982859
ID:234 curr: 1000000000420983521 queue:13317475 service:851453 sjr:14168928
interval: 1666666
start req: 1000000000421900468 gen: 1000000000408481259
recv req: 1000000000421901251
send resp: 1000000000422756561
ID:235 curr: 1000000000422757230 queue:13420661 service:855310 sjr:14275971
interval: 1666666
start req: 1000000000423674063 gen: 1000000000410147925
recv req: 1000000000423674845
send resp: 1000000000424525731
ID:236 curr: 1000000000424526410 queue:13527599 service:850886 sjr:14378485
interval: 1666666
start req: 1000000000425443279 gen: 1000000000411814591
recv req: 1000000000425444062
send resp: 1000000000426301769
ID:237 curr: 1000000000426302384 queue:13630086 service:857707 sjr:14487793
interval: 1666666
start req: 1000000000427219269 gen: 1000000000413481257
recv req: 1000000000427220063
send resp: 1000000000428071088
ID:238 curr: 1000000000428071708 queue:13739426 service:851025 sjr:14590451
interval: 1666666
start req: 1000000000428988658 gen: 1000000000415147923
recv req: 1000000000428989436
send resp: 1000000000429846376
ID:239 curr: 1000000000429847045 queue:13842182 service:856940 sjr:14699122
interval: 1666666
start req: 1000000000430763885 gen: 1000000000416814589
recv req: 1000000000430764634
send resp: 1000000000431614573
ID:240 curr: 1000000000431615235 queue:13950707 service:849939 sjr:14800646
interval: 1666666
start req: 1000000000432532371 gen: 1000000000418481255
recv req: 1000000000432533142
send resp: 1000000000433391743
ID:241 curr: 1000000000433392380 queue:14052524 service:858601 sjr:14911125
interval: 1666666
start req: 1000000000434309214 gen: 1000000000420147921
recv req: 1000000000434309948
send resp: 1000000000435162320
ID:242 curr: 1000000000435163001 queue:14162708 service:852372 sjr:15015080
interval: 1666666
start req: 1000000000436079837 gen: 1000000000421814587
recv req: 1000000000436080591
send resp: 1000000000436935664
ID:243 curr: 1000000000436936331 queue:14266671 service:855073 sjr:15121744
interval: 1666666
start req: 1000000000437853218 gen: 1000000000423481253
recv req: 1000000000437854001
send resp: 1000000000438706886
ID:244 curr: 1000000000438707501 queue:14373363 service:852885 sjr:15226248
interval: 1666666
start req: 1000000000439624458 gen: 1000000000425147919
recv req: 1000000000439625236
send resp: 1000000000440481689
ID:245 curr: 1000000000440482309 queue:14477937 service:856453 sjr:15334390
interval: 1666666
start req: 1000000000441399196 gen: 1000000000426814585
recv req: 1000000000441399990
send resp: 1000000000442249955
ID:246 curr: 1000000000442250623 queue:14586073 service:849965 sjr:15436038
interval: 1666666
start req: 1000000000443167582 gen: 1000000000428481251
recv req: 1000000000443168371
send resp: 1000000000444028231
ID:247 curr: 1000000000444028912 queue:14687801 service:859860 sjr:15547661
interval: 1666666
start req: 1000000000444945773 gen: 1000000000430147917
recv req: 1000000000444946505
send resp: 1000000000445798587
ID:248 curr: 1000000000445799249 queue:14799250 service:852082 sjr:15651332
interval: 1666666
start req: 1000000000446716357 gen: 1000000000431814583
recv req: 1000000000446717139
send resp: 1000000000447575894
ID:249 curr: 1000000000447576534 queue:14903196 service:858755 sjr:15761951
interval: 1666666
start req: 1000000000448493378 gen: 1000000000433481249
recv req: 1000000000448494110
send resp: 1000000000449344515
ID:250 curr: 1000000000449345189 queue:15013535 service:850405 sjr:15863940
interval: 1666666
start req: 1000000000450262139 gen: 1000000000435147915
recv req: 1000000000450262941
send resp: 1000000000451121801
ID:251 curr: 1000000000451122419 queue:15115644 service:858860 sjr:15974504
interval: 1666666
start req: 1000000000452039306 gen: 1000000000436814581
recv req: 1000000000452040040
send resp: 1000000000452893093
ID:252 curr: 1000000000452893717 queue:15226083 service:853053 sjr:16079136
interval: 1666666
start req: 1000000000453810588 gen: 1000000000438481247
recv req: 1000000000453811366
send resp: 1000000000454670474
ID:253 curr: 1000000000454671111 queue:15330756 service:859108 sjr:16189864
interval: 1666666
start req: 1000000000455587943 gen: 1000000000440147913
recv req: 1000000000455588680
send resp: 1000000000456439728
ID:254 curr: 1000000000456440401 queue:15441440 service:851048 sjr:16292488
interval: 1666666
start req: 1000000000457357345 gen: 1000000000441814579
recv req: 1000000000457358123
send resp: 1000000000458217343
ID:255 curr: 1000000000458218010 queue:15544211 service:859220 sjr:16403431
interval: 1666666
start req: 1000000000459134851 gen: 1000000000443481245
recv req: 1000000000459135600
send resp: 1000000000459986695
ID:256 curr: 1000000000459987363 queue:15655023 service:851095 sjr:16506118
interval: 1666666
start req: 1000000000460917963 gen: 1000000000445147911
recv req: 1000000000460918757
send resp: 1000000000461779296
ID:257 curr: 1000000000461779928 queue:15771478 service:860539 sjr:16632017
interval: 1666666
start req: 1000000000462696929 gen: 1000000000446814577
recv req: 1000000000462697669
send resp: 1000000000463549182
ID:258 curr: 1000000000463549788 queue:15883698 service:851513 sjr:16735211
interval: 1666666
start req: 1000000000464466770 gen: 1000000000448481243
recv req: 1000000000464467543
send resp: 1000000000465327670
ID:259 curr: 1000000000465328288 queue:15986918 service:860127 sjr:16847045
interval: 1666666
start req: 1000000000466245185 gen: 1000000000450147909
recv req: 1000000000466245963
send resp: 1000000000467097619
ID:260 curr: 1000000000467098281 queue:16098716 service:851656 sjr:16950372
interval: 1666666
start req: 1000000000468015242 gen: 1000000000451814575
recv req: 1000000000468016013
send resp: 1000000000468874900
ID:261 curr: 1000000000468875569 queue:16202107 service:858887 sjr:17060994
interval: 1666666
start req: 1000000000469792415 gen: 1000000000453481241
recv req: 1000000000469793159
send resp: 1000000000470646829
ID:262 curr: 1000000000470647465 queue:16312554 service:853670 sjr:17166224
interval: 1666666
start req: 1000000000471564383 gen: 1000000000455147907
recv req: 1000000000471565154
send resp: 1000000000472426375
ID:263 curr: 1000000000472427044 queue:16417916 service:861221 sjr:17279137
interval: 1666666
start req: 1000000000473343906 gen: 1000000000456814573
recv req: 1000000000473344640
send resp: 1000000000474197221
ID:264 curr: 1000000000474197848 queue:16530694 service:852581 sjr:17383275
interval: 1666666
start req: 1000000000475114718 gen: 1000000000458481239
recv req: 1000000000475115496
send resp: 1000000000475975018
ID:265 curr: 1000000000475975648 queue:16634887 service:859522 sjr:17494409
interval: 1666666
start req: 1000000000476892545 gen: 1000000000460147905
recv req: 1000000000476893323
send resp: 1000000000477744351
ID:266 curr: 1000000000477744949 queue:16746016 service:851028 sjr:17597044
interval: 1666666
start req: 1000000000478661905 gen: 1000000000461814571
recv req: 1000000000478662685
send resp: 1000000000479522064
ID:267 curr: 1000000000479522731 queue:16848781 service:859379 sjr:17708160
interval: 1666666
start req: 1000000000480439568 gen: 1000000000463481237
recv req: 1000000000480440300
send resp: 1000000000481292324
ID:268 curr: 1000000000481292992 queue:16959731 service:852024 sjr:17811755
interval: 1666666
start req: 1000000000482209936 gen: 1000000000465147903
recv req: 1000000000482210725
send resp: 1000000000483071375
ID:269 curr: 1000000000483072044 queue:17063491 service:860650 sjr:17924141
interval: 1666666
start req: 1000000000483988917 gen: 1000000000466814569
recv req: 1000000000483989671
send resp: 1000000000484842066
ID:270 curr: 1000000000484842711 queue:17175747 service:852395 sjr:18028142
interval: 1666666
start req: 1000000000485759681 gen: 1000000000468481235
recv req: 1000000000485760477
send resp: 1000000000486621422
ID:271 curr: 1000000000486622035 queue:17279855 service:860945 sjr:18140800
interval: 1666666
start req: 1000000000487538919 gen: 1000000000470147901
recv req: 1000000000487539713
send resp: 1000000000488388820
ID:272 curr: 1000000000488389435 queue:17392427 service:849107 sjr:18241534
interval: 1666666
start req: 1000000000489306408 gen: 1000000000471814567
recv req: 1000000000489307193
send resp: 1000000000490179656
ID:273 curr: 1000000000490180272 queue:17493242 service:872463 sjr:18365705
interval: 1666666
start req: 1000000000491097262 gen: 1000000000473481233
recv req: 1000000000491098057
send resp: 1000000000491946654
ID:274 curr: 1000000000491947289 queue:17617459 service:848597 sjr:18466056
interval: 1666666
start req: 1000000000492864206 gen: 1000000000475147899
recv req: 1000000000492865006
send resp: 1000000000493768647
ID:275 curr: 1000000000493769340 queue:17717800 service:903641 sjr:18621441
interval: 1666666
start req: 1000000000494686202 gen: 1000000000476814565
recv req: 1000000000494686988
send resp: 1000000000495534632
ID:276 curr: 1000000000495535300 queue:17873091 service:847644 sjr:18720735
interval: 1666666
start req: 1000000000496452208 gen: 1000000000478481231
recv req: 1000000000496452995
send resp: 1000000000497324743
ID:277 curr: 1000000000497325411 queue:17972432 service:871748 sjr:18844180
interval: 1666666
start req: 1000000000498242225 gen: 1000000000480147897
recv req: 1000000000498243011
send resp: 1000000000499088034
ID:278 curr: 1000000000499088632 queue:18095712 service:845023 sjr:18940735
interval: 1666666
start req: 1000000000500005491 gen: 1000000000481814563
recv req: 1000000000500006280
send resp: 1000000000500874623
ID:279 curr: 1000000000500875237 queue:18192331 service:868343 sjr:19060674
interval: 1666666
start req: 1000000000501792059 gen: 1000000000483481229
recv req: 1000000000501792832
send resp: 1000000000502673341
ID:280 curr: 1000000000502673966 queue:18312228 service:880509 sjr:19192737
interval: 1666666
start req: 1000000000503590840 gen: 1000000000485147895
recv req: 1000000000503591624
send resp: 1000000000504464888
ID:281 curr: 1000000000504465558 queue:18444399 service:873264 sjr:19317663
interval: 1666666
start req: 1000000000505382309 gen: 1000000000486814561
recv req: 1000000000505383087
send resp: 1000000000506226826
ID:282 curr: 1000000000506227462 queue:18569162 service:843739 sjr:19412901
interval: 1666666
start req: 1000000000507144305 gen: 1000000000488481227
recv req: 1000000000507145083
send resp: 1000000000508018310
ID:283 curr: 1000000000508018980 queue:18664526 service:873227 sjr:19537753
interval: 1666666
start req: 1000000000508935739 gen: 1000000000490147893
recv req: 1000000000508936516
send resp: 1000000000509784060
ID:284 curr: 1000000000509784731 queue:18789294 service:847544 sjr:19636838
interval: 1666666
start req: 1000000000510701582 gen: 1000000000491814559
recv req: 1000000000510702367
send resp: 1000000000511606242
ID:285 curr: 1000000000511606859 queue:18888425 service:903875 sjr:19792300
interval: 1666666
start req: 1000000000512523674 gen: 1000000000493481225
recv req: 1000000000512524451
send resp: 1000000000513375152
ID:286 curr: 1000000000513375760 queue:19043834 service:850701 sjr:19894535
interval: 1666666
start req: 1000000000514292582 gen: 1000000000495147891
recv req: 1000000000514293355
send resp: 1000000000515167860
ID:287 curr: 1000000000515168530 queue:19146134 service:874505 sjr:20020639
interval: 1666666
start req: 1000000000516085274 gen: 1000000000496814557
recv req: 1000000000516086045
send resp: 1000000000516934058
ID:288 curr: 1000000000516934728 queue:19272158 service:848013 sjr:20120171
interval: 1666666
start req: 1000000000517851560 gen: 1000000000498481223
recv req: 1000000000517852331
send resp: 1000000000518723753
ID:289 curr: 1000000000518724421 queue:19371776 service:871422 sjr:20243198
interval: 1666666
start req: 1000000000519641175 gen: 1000000000500147889
recv req: 1000000000519641983
send resp: 1000000000520526533
ID:290 curr: 1000000000520527182 queue:19494743 service:884550 sjr:20379293
interval: 1666666
start req: 1000000000521443949 gen: 1000000000501814555
recv req: 1000000000521444720
send resp: 1000000000522319865
ID:291 curr: 1000000000522320503 queue:19630803 service:875145 sjr:20505948
interval: 1666666
start req: 1000000000523237289 gen: 1000000000503481221
recv req: 1000000000523238069
send resp: 1000000000524086447
ID:292 curr: 1000000000524087061 queue:19757462 service:848378 sjr:20605840
interval: 1666666
start req: 1000000000525002681 gen: 1000000000505147887
recv req: 1000000000525003455
send resp: 1000000000525879004
ID:293 curr: 1000000000525879621 queue:19856185 service:875549 sjr:20731734
interval: 1666666
start req: 1000000000526796024 gen: 1000000000506814553
recv req: 1000000000526796804
send resp: 1000000000527650238
ID:294 curr: 1000000000527650914 queue:19982927 service:853434 sjr:20836361
interval: 1666666
start req: 1000000000528566971 gen: 1000000000508481219
recv req: 1000000000528567759
send resp: 1000000000529444520
ID:295 curr: 1000000000529445165 queue:20087185 service:876761 sjr:20963946
interval: 1666666
start req: 1000000000530361947 gen: 1000000000510147885
recv req: 1000000000530362735
send resp: 1000000000531251008
ID:296 curr: 1000000000531251689 queue:20215531 service:888273 sjr:21103804
interval: 1666666
start req: 1000000000532168449 gen: 1000000000511814551
recv req: 1000000000532169225
send resp: 1000000000533046644
ID:297 curr: 1000000000533047314 queue:20355344 service:877419 sjr:21232763
interval: 1666666
start req: 1000000000533964104 gen: 1000000000513481217
recv req: 1000000000533964875
send resp: 1000000000534816589
ID:298 curr: 1000000000534817265 queue:20484334 service:851714 sjr:21336048
interval: 1666666
start req: 1000000000535734086 gen: 1000000000515147883
recv req: 1000000000535734866
send resp: 1000000000536609885
ID:299 curr: 1000000000536610481 queue:20587579 service:875019 sjr:21462598
interval: 1666666
start req: 1000000000537527291 gen: 1000000000516814549
recv req: 1000000000537528060
send resp: 1000000000538377701
ID:300 curr: 1000000000538378315 queue:20714125 service:849641 sjr:21563766
interval: 1666666
start req: 1000000000539295248 gen: 1000000000518481215
recv req: 1000000000539296026
send resp: 1000000000540205396
ID:301 curr: 1000000000540206066 queue:20815481 service:909370 sjr:21724851
interval: 1666666
start req: 1000000000541122846 gen: 1000000000520147881
recv req: 1000000000541123625
send resp: 1000000000541977765
ID:302 curr: 1000000000541978435 queue:20976414 service:854140 sjr:21830554
interval: 1666666
start req: 1000000000542895219 gen: 1000000000521814547
recv req: 1000000000542895990
send resp: 1000000000543772550
ID:303 curr: 1000000000543773186 queue:21082079 service:876560 sjr:21958639
interval: 1666666
start req: 1000000000544689937 gen: 1000000000523481213
recv req: 1000000000544690715
send resp: 1000000000545544746
ID:304 curr: 1000000000545545416 queue:21210172 service:854031 sjr:22064203
interval: 1666666
start req: 1000000000546462253 gen: 1000000000525147879
recv req: 1000000000546463033
send resp: 1000000000547340685
ID:305 curr: 1000000000547341303 queue:21315772 service:877652 sjr:22193424
interval: 1666666
start req: 1000000000548258093 gen: 1000000000526814545
recv req: 1000000000548258873
send resp: 1000000000549149955
ID:306 curr: 1000000000549150578 queue:21444951 service:891082 sjr:22336033
interval: 1666666
start req: 1000000000550067375 gen: 1000000000528481211
recv req: 1000000000550068149
send resp: 1000000000550947869
ID:307 curr: 1000000000550948467 queue:21587536 service:879720 sjr:22467256
interval: 1666666
start req: 1000000000551865279 gen: 1000000000530147877
recv req: 1000000000551866070
send resp: 1000000000552723947
ID:308 curr: 1000000000552724615 queue:21718861 service:857877 sjr:22576738
interval: 1666666
start req: 1000000000553641472 gen: 1000000000531814543
recv req: 1000000000553642265
send resp: 1000000000554523448
ID:309 curr: 1000000000554524123 queue:21828397 service:881183 sjr:22709580
interval: 1666666
start req: 1000000000555440863 gen: 1000000000533481209
recv req: 1000000000555441647
send resp: 1000000000556300088
ID:310 curr: 1000000000556300750 queue:21961100 service:858441 sjr:22819541
interval: 1666666
start req: 1000000000557216223 gen: 1000000000535147875
recv req: 1000000000557217007
send resp: 1000000000558095441
ID:311 curr: 1000000000558096079 queue:22069770 service:878434 sjr:22948204
interval: 1666666
start req: 1000000000559012883 gen: 1000000000536814541
recv req: 1000000000559013668
send resp: 1000000000559906796
ID:312 curr: 1000000000559907422 queue:22199753 service:893128 sjr:23092881
interval: 1666666
start req: 1000000000560824247 gen: 1000000000538481207
recv req: 1000000000560825039
send resp: 1000000000561703933
ID:313 curr: 1000000000561704556 queue:22344455 service:878894 sjr:23223349
interval: 1666666
start req: 1000000000562619624 gen: 1000000000540147873
recv req: 1000000000562620426
send resp: 1000000000563476858
ID:314 curr: 1000000000563477475 queue:22473170 service:856432 sjr:23329602
interval: 1666666
start req: 1000000000564391304 gen: 1000000000541814539
recv req: 1000000000564392089
send resp: 1000000000565272532
ID:315 curr: 1000000000565273168 queue:22578186 service:880443 sjr:23458629
interval: 1666666
start req: 1000000000566189917 gen: 1000000000543481205
recv req: 1000000000566190700
send resp: 1000000000567049788
ID:316 curr: 1000000000567050460 queue:22710167 service:859088 sjr:23569255
interval: 1666666
start req: 1000000000567967246 gen: 1000000000545147871
recv req: 1000000000567968028
send resp: 1000000000568884091
ID:317 curr: 1000000000568884762 queue:22820828 service:916063 sjr:23736891
interval: 1666666
start req: 1000000000569801538 gen: 1000000000546814537
recv req: 1000000000569802323
send resp: 1000000000570659661
ID:318 curr: 1000000000570660323 queue:22988448 service:857338 sjr:23845786
interval: 1666666
start req: 1000000000571577170 gen: 1000000000548481203
recv req: 1000000000571577943
send resp: 1000000000572458689
ID:319 curr: 1000000000572459286 queue:23097337 service:880746 sjr:23978083
interval: 1666666
start req: 1000000000573376051 gen: 1000000000550147869
recv req: 1000000000573376826
send resp: 1000000000574237215
ID:320 curr: 1000000000574237830 queue:23229572 service:860389 sjr:24089961
interval: 1666666
start req: 1000000000575154643 gen: 1000000000551814535
recv req: 1000000000575155424
send resp: 1000000000576037826
ID:321 curr: 1000000000576038446 queue:23341509 service:882402 sjr:24223911
interval: 1666666
start req: 1000000000576955245 gen: 1000000000553481201
recv req: 1000000000576956025
send resp: 1000000000577846550
ID:322 curr: 1000000000577847228 queue:23475502 service:890525 sjr:24366027
interval: 1666666
start req: 1000000000578763594 gen: 1000000000555147867
recv req: 1000000000578764371
send resp: 1000000000579640932
ID:323 curr: 1000000000579641607 queue:23617179 service:876561 sjr:24493740
interval: 1666666
start req: 1000000000580556203 gen: 1000000000556814533
recv req: 1000000000580556991
send resp: 1000000000581410395
ID:324 curr: 1000000000581411030 queue:23743093 service:853404 sjr:24596497
interval: 1666666
start req: 1000000000582327017 gen: 1000000000558481199
recv req: 1000000000582327795
send resp: 1000000000583204410
ID:325 curr: 1000000000583205130 queue:23847316 service:876615 sjr:24723931
interval: 1666666
start req: 1000000000584121929 gen: 1000000000560147865
recv req: 1000000000584122720
send resp: 1000000000584974099
ID:326 curr: 1000000000584974708 queue:23975464 service:851379 sjr:24826843
interval: 1666666
start req: 1000000000585883608 gen: 1000000000561814531
recv req: 1000000000585884381
send resp: 1000000000586787373
ID:327 curr: 1000000000586787992 queue:24070469 service:902992 sjr:24973461
interval: 1666666
start req: 1000000000587695113 gen: 1000000000563481197
recv req: 1000000000587695884
send resp: 1000000000588544393
ID:328 curr: 1000000000588544991 queue:24215285 service:848509 sjr:25063794
interval: 1666666
start req: 1000000000589456144 gen: 1000000000565147863
recv req: 1000000000589456946
send resp: 1000000000590329332
ID:329 curr: 1000000000590330005 queue:24309756 service:872386 sjr:25182142
interval: 1666666
start req: 1000000000591240182 gen: 1000000000566814529
recv req: 1000000000591240953
send resp: 1000000000592088135
ID:330 curr: 1000000000592088805 queue:24427094 service:847182 sjr:25274276
interval: 1666666
start req: 1000000000593003409 gen: 1000000000568481195
recv req: 1000000000593004187
send resp: 1000000000593875080
ID:331 curr: 1000000000593875750 queue:24523662 service:870893 sjr:25394555
interval: 1666666
start req: 1000000000594789879 gen: 1000000000570147861
recv req: 1000000000594790657
send resp: 1000000000595635360
ID:332 curr: 1000000000595635996 queue:24643432 service:844703 sjr:25488135
interval: 1666666
start req: 1000000000596543135 gen: 1000000000571814527
recv req: 1000000000596543915
send resp: 1000000000597441642
ID:333 curr: 1000000000597442264 queue:24730010 service:897727 sjr:25627737
interval: 1666666
start req: 1000000000598351152 gen: 1000000000573481193
recv req: 1000000000598351938
send resp: 1000000000599192850
ID:334 curr: 1000000000599193470 queue:24871365 service:840912 sjr:25712277
interval: 1666666
start req: 1000000000600096712 gen: 1000000000575147859
recv req: 1000000000600097501
send resp: 1000000000600966019
ID:335 curr: 1000000000600966651 queue:24950274 service:868518 sjr:25818792
interval: 1666666
start req: 1000000000601876868 gen: 1000000000576814525
recv req: 1000000000601877642
send resp: 1000000000602723139
ID:336 curr: 1000000000602723769 queue:25063747 service:845497 sjr:25909244
interval: 1666666
start req: 1000000000603633655 gen: 1000000000578481191
recv req: 1000000000603634426
send resp: 1000000000604496966
ID:337 curr: 1000000000604497682 queue:25153951 service:862540 sjr:26016491
interval: 1666666
start req: 1000000000605397943 gen: 1000000000580147857
recv req: 1000000000605398729
send resp: 1000000000606273947
ID:338 curr: 1000000000606274623 queue:25251548 service:875218 sjr:26126766
interval: 1666666
start req: 1000000000607179763 gen: 1000000000581814523
recv req: 1000000000607180534
send resp: 1000000000608057611
ID:339 curr: 1000000000608058281 queue:25366681 service:877077 sjr:26243758
interval: 1666666
start req: 1000000000608974291 gen: 1000000000583481189
recv req: 1000000000608975083
send resp: 1000000000609824718
ID:340 curr: 1000000000609825337 queue:25494513 service:849635 sjr:26344148
interval: 1666666
start req: 1000000000610735829 gen: 1000000000585147855
recv req: 1000000000610736602
send resp: 1000000000611611653
ID:341 curr: 1000000000611612273 queue:25589367 service:875051 sjr:26464418
interval: 1666666
start req: 1000000000612525063 gen: 1000000000586814521
recv req: 1000000000612525836
send resp: 1000000000613378159
ID:342 curr: 1000000000613378768 queue:25711924 service:852323 sjr:26564247
interval: 1666666
start req: 1000000000614295596 gen: 1000000000588481187
recv req: 1000000000614296376
send resp: 1000000000615205880
ID:343 curr: 1000000000615206550 queue:25815859 service:909504 sjr:26725363
interval: 1666666
start req: 1000000000616122534 gen: 1000000000590147853
recv req: 1000000000616123309
send resp: 1000000000616975268
ID:344 curr: 1000000000616975898 queue:25976086 service:851959 sjr:26828045
interval: 1666666
start req: 1000000000617889224 gen: 1000000000591814519
recv req: 1000000000617890002
send resp: 1000000000618762596
ID:345 curr: 1000000000618763274 queue:26076161 service:872594 sjr:26948755
interval: 1666666
start req: 1000000000619671641 gen: 1000000000593481185
recv req: 1000000000619672423
send resp: 1000000000620529447
ID:346 curr: 1000000000620530115 queue:26191906 service:857024 sjr:27048930
interval: 1666666
start req: 1000000000621446998 gen: 1000000000595147851
recv req: 1000000000621447789
send resp: 1000000000622328231
ID:347 curr: 1000000000622328848 queue:26300555 service:880442 sjr:27180997
interval: 1666666
start req: 1000000000623245662 gen: 1000000000596814517
recv req: 1000000000623246451
send resp: 1000000000624099392
ID:348 curr: 1000000000624099982 queue:26432524 service:852941 sjr:27285465
interval: 1666666
start req: 1000000000625012814 gen: 1000000000598481183
recv req: 1000000000625013599
send resp: 1000000000625922284
ID:349 curr: 1000000000625922856 queue:26532988 service:908685 sjr:27441673
interval: 1666666
start req: 1000000000626828041 gen: 1000000000600147849
recv req: 1000000000626828785
send resp: 1000000000627674034
ID:350 curr: 1000000000627674702 queue:26681604 service:845249 sjr:27526853
interval: 1666666
start req: 1000000000628575112 gen: 1000000000601814515
recv req: 1000000000628575894
send resp: 1000000000629446015
ID:351 curr: 1000000000629446688 queue:26762052 service:870121 sjr:27632173
interval: 1666666
start req: 1000000000630348686 gen: 1000000000603481181
recv req: 1000000000630349425
send resp: 1000000000631198823
ID:352 curr: 1000000000631199452 queue:26868873 service:849398 sjr:27718271
interval: 1666666
start req: 1000000000632109087 gen: 1000000000605147847
recv req: 1000000000632109887
send resp: 1000000000632976671
ID:353 curr: 1000000000632977341 queue:26962710 service:866784 sjr:27829494
interval: 1666666
start req: 1000000000633874139 gen: 1000000000606814513
recv req: 1000000000633874923
send resp: 1000000000634759626
ID:354 curr: 1000000000634760251 queue:27061035 service:884703 sjr:27945738
interval: 1666666
start req: 1000000000635663555 gen: 1000000000608481179
recv req: 1000000000635664359
send resp: 1000000000636535453
ID:355 curr: 1000000000636536037 queue:27183764 service:871094 sjr:28054858
interval: 1666666
start req: 1000000000637425178 gen: 1000000000610147845
recv req: 1000000000637425980
send resp: 1000000000638277152
ID:356 curr: 1000000000638277733 queue:27278716 service:851172 sjr:28129888
interval: 1666666
start req: 1000000000639176577 gen: 1000000000611814511
recv req: 1000000000639177357
send resp: 1000000000640048508
ID:357 curr: 1000000000640049144 queue:27363482 service:871151 sjr:28234633
interval: 1666666
start req: 1000000000640951397 gen: 1000000000613481177
recv req: 1000000000640952168
send resp: 1000000000641800011
ID:358 curr: 1000000000641800685 queue:27471665 service:847843 sjr:28319508
interval: 1666666
start req: 1000000000642694784 gen: 1000000000615147843
recv req: 1000000000642695557
send resp: 1000000000643610930
ID:359 curr: 1000000000643611601 queue:27548385 service:915373 sjr:28463758
interval: 1666666
start req: 1000000000644518237 gen: 1000000000616814509
recv req: 1000000000644519021
send resp: 1000000000645378510
ID:360 curr: 1000000000645379172 queue:27705174 service:859489 sjr:28564663
interval: 1666666
start req: 1000000000646285913 gen: 1000000000618481175
recv req: 1000000000646286684
send resp: 1000000000647173571
ID:361 curr: 1000000000647174171 queue:27806109 service:886887 sjr:28692996
interval: 1666666
start req: 1000000000648083038 gen: 1000000000620147841
recv req: 1000000000648083818
send resp: 1000000000648943978
ID:362 curr: 1000000000648944599 queue:27936598 service:860160 sjr:28796758
interval: 1666666
start req: 1000000000649853982 gen: 1000000000621814507
recv req: 1000000000649854784
send resp: 1000000000650742702
ID:363 curr: 1000000000650743378 queue:28040953 service:887918 sjr:28928871
interval: 1666666
start req: 1000000000651657096 gen: 1000000000623481173
recv req: 1000000000651657880
send resp: 1000000000652553268
ID:364 curr: 1000000000652553996 queue:28177435 service:895388 sjr:29072823
interval: 1666666
start req: 1000000000653463293 gen: 1000000000625147839
recv req: 1000000000653464064
send resp: 1000000000654352775
ID:365 curr: 1000000000654353412 queue:28316862 service:888711 sjr:29205573
interval: 1666666
start req: 1000000000655262678 gen: 1000000000626814505
recv req: 1000000000655263449
send resp: 1000000000656134660
ID:366 curr: 1000000000656135330 queue:28449614 service:871211 sjr:29320825
interval: 1666666
start req: 1000000000657051676 gen: 1000000000628481171
recv req: 1000000000657052453
send resp: 1000000000657941115
ID:367 curr: 1000000000657941789 queue:28571956 service:888662 sjr:29460618
interval: 1666666
start req: 1000000000658847124 gen: 1000000000630147837
recv req: 1000000000658847939
send resp: 1000000000659708939
ID:368 curr: 1000000000659709560 queue:28700723 service:861000 sjr:29561723
interval: 1666666
start req: 1000000000660604383 gen: 1000000000631814503
recv req: 1000000000660605167
send resp: 1000000000661493273
ID:369 curr: 1000000000661493869 queue:28791260 service:888106 sjr:29679366
interval: 1666666
start req: 1000000000662400108 gen: 1000000000633481169
recv req: 1000000000662400888
send resp: 1000000000663297157
ID:370 curr: 1000000000663297846 queue:28920408 service:896269 sjr:29816677
interval: 1666666
start req: 1000000000664200145 gen: 1000000000635147835
recv req: 1000000000664200923
send resp: 1000000000665085105
ID:371 curr: 1000000000665085781 queue:29053764 service:884182 sjr:29937946
interval: 1666666
start req: 1000000000665980524 gen: 1000000000636814501
recv req: 1000000000665981302
send resp: 1000000000666844577
[...]
recv req: 1000000003163893185
send resp: 1000000003164744892
ID:1813 curr: 1000000003164745562 queue:55824870 service:851707 sjr:56676577
interval: 1666666
start req: 1000000003165597847 gen: 1000000003109735651
recv req: 1000000003165598625
send resp: 1000000003166430914
ID:1814 curr: 1000000003166431584 queue:55863644 service:832289 sjr:56695933
interval: 1666666
start req: 1000000003167280285 gen: 1000000003111402317
recv req: 1000000003167281069
send resp: 1000000003168165313
ID:1815 curr: 1000000003168165983 queue:55879422 service:884244 sjr:56763666
interval: 1666666
start req: 1000000003169010719 gen: 1000000003113068983
recv req: 1000000003169011488
send resp: 1000000003169846547
ID:1816 curr: 1000000003169847186 queue:55943144 service:835059 sjr:56778203
interval: 1666666
start req: 1000000003170705652 gen: 1000000003114735649
recv req: 1000000003170706423
send resp: 1000000003171561145
ID:1817 curr: 1000000003171561817 queue:55971446 service:854722 sjr:56826168
interval: 1666666
start req: 1000000003172411642 gen: 1000000003116402315
recv req: 1000000003172412430
send resp: 1000000003173243873
ID:1818 curr: 1000000003173244442 queue:56010684 service:831443 sjr:56842127
interval: 1666666
start req: 1000000003174090801 gen: 1000000003118068981
recv req: 1000000003174091600
send resp: 1000000003174944627
ID:1819 curr: 1000000003174945260 queue:56023252 service:853027 sjr:56876279
interval: 1666666
start req: 1000000003175803974 gen: 1000000003119735647
recv req: 1000000003175804762
send resp: 1000000003176646385
ID:1820 curr: 1000000003176647020 queue:56069750 service:841623 sjr:56911373
interval: 1666666
start req: 1000000003177515931 gen: 1000000003121402313
recv req: 1000000003177516709
send resp: 1000000003178400049
ID:1821 curr: 1000000003178400685 queue:56115032 service:883340 sjr:56998372
interval: 1666666
start req: 1000000003179239383 gen: 1000000003123068979
recv req: 1000000003179240166
send resp: 1000000003180073406
ID:1822 curr: 1000000003180074085 queue:56171866 service:833240 sjr:57005106
interval: 1666666
start req: 1000000003180930635 gen: 1000000003124735645
recv req: 1000000003180931415
send resp: 1000000003181794585
ID:1823 curr: 1000000003181795263 queue:56196448 service:863170 sjr:57059618
interval: 1666666
start req: 1000000003182655559 gen: 1000000003126402311
recv req: 1000000003182656331
send resp: 1000000003183499095
ID:1824 curr: 1000000003183499691 queue:56254616 service:842764 sjr:57097380
interval: 1666666
start req: 1000000003184368044 gen: 1000000003128068977
recv req: 1000000003184368817
send resp: 1000000003185227542
ID:1825 curr: 1000000003185228168 queue:56300466 service:858725 sjr:57159191
interval: 1666666
start req: 1000000003186077352 gen: 1000000003129735643
recv req: 1000000003186078142
send resp: 1000000003186941280
ID:1826 curr: 1000000003186941904 queue:56343123 service:863138 sjr:57206261
interval: 1666666
start req: 1000000003187797552 gen: 1000000003131402309
recv req: 1000000003187798351
send resp: 1000000003188660367
ID:1827 curr: 1000000003188661040 queue:56396715 service:862016 sjr:57258731
interval: 1666666
start req: 1000000003189516024 gen: 1000000003133068975
recv req: 1000000003189516802
send resp: 1000000003190356192
ID:1828 curr: 1000000003190356831 queue:56448466 service:839390 sjr:57287856
interval: 1666666
start req: 1000000003191217888 gen: 1000000003134735641
recv req: 1000000003191218672
send resp: 1000000003192077724
ID:1829 curr: 1000000003192078392 queue:56483699 service:859052 sjr:57342751
interval: 1666666
start req: 1000000003192931360 gen: 1000000003136402307
recv req: 1000000003192932131
send resp: 1000000003193776454
ID:1830 curr: 1000000003193777133 queue:56530503 service:844323 sjr:57374826
interval: 1666666
start req: 1000000003194644108 gen: 1000000003138068973
recv req: 1000000003194644873
send resp: 1000000003195539064
ID:1831 curr: 1000000003195539678 queue:56576514 service:894191 sjr:57470705
interval: 1666666
start req: 1000000003196397969 gen: 1000000003139735639
recv req: 1000000003196398757
send resp: 1000000003197238202
ID:1832 curr: 1000000003197238800 queue:56663716 service:839445 sjr:57503161
interval: 1666666
start req: 1000000003198093845 gen: 1000000003141402305
recv req: 1000000003198094628
send resp: 1000000003198961673
ID:1833 curr: 1000000003198962292 queue:56692942 service:867045 sjr:57559987
interval: 1666666
start req: 1000000003199826920 gen: 1000000003143068971
recv req: 1000000003199827705
send resp: 1000000003200658855
ID:1834 curr: 1000000003200659516 queue:56759395 service:831150 sjr:57590545
interval: 1666666
start req: 1000000003201500715 gen: 1000000003144735637
recv req: 1000000003201501504
send resp: 1000000003202359713
ID:1835 curr: 1000000003202360390 queue:56766544 service:858209 sjr:57624753
interval: 1666666
start req: 1000000003203207690 gen: 1000000003146402303
recv req: 1000000003203208461
send resp: 1000000003204043844
ID:1836 curr: 1000000003204044480 queue:56806794 service:835383 sjr:57642177
interval: 1666666
start req: 1000000003204892054 gen: 1000000003148068969
recv req: 1000000003204892843
send resp: 1000000003205785798
ID:1837 curr: 1000000003205786471 queue:56824547 service:892955 sjr:57717502
interval: 1666666
start req: 1000000003206656299 gen: 1000000003149735635
recv req: 1000000003206657089
send resp: 1000000003207498064
ID:1838 curr: 1000000003207498681 queue:56922071 service:840975 sjr:57763046
interval: 1666666
start req: 1000000003208360253 gen: 1000000003151402301
recv req: 1000000003208361034
send resp: 1000000003209225861
ID:1839 curr: 1000000003209226480 queue:56959352 service:864827 sjr:57824179
interval: 1666666
start req: 1000000003210088180 gen: 1000000003153068967
recv req: 1000000003210088974
send resp: 1000000003210922650
ID:1840 curr: 1000000003210923252 queue:57020609 service:833676 sjr:57854285
interval: 1666666
start req: 1000000003211773761 gen: 1000000003154735633
recv req: 1000000003211774546
send resp: 1000000003212640327
ID:1841 curr: 1000000003212640995 queue:57039581 service:865781 sjr:57905362
interval: 1666666
start req: 1000000003213512933 gen: 1000000003156402299
recv req: 1000000003213513715
send resp: 1000000003214380133
ID:1842 curr: 1000000003214380817 queue:57112100 service:866418 sjr:57978518
interval: 1666666
start req: 1000000003215230933 gen: 1000000003158068965
recv req: 1000000003215231710
send resp: 1000000003216097339
ID:1843 curr: 1000000003216098009 queue:57163415 service:865629 sjr:58029044
interval: 1666666
start req: 1000000003216961856 gen: 1000000003159735631
recv req: 1000000003216962633
send resp: 1000000003217802283
ID:1844 curr: 1000000003217802951 queue:57227670 service:839650 sjr:58067320
interval: 1666666
start req: 1000000003218666122 gen: 1000000003161402297
recv req: 1000000003218666893
send resp: 1000000003219520665
ID:1845 curr: 1000000003219521270 queue:57265201 service:853772 sjr:58118973
interval: 1666666
start req: 1000000003220368690 gen: 1000000003163068963
recv req: 1000000003220369481
send resp: 1000000003221205255
ID:1846 curr: 1000000003221205870 queue:57301133 service:835774 sjr:58136907
interval: 1666666
start req: 1000000003222060736 gen: 1000000003164735629
recv req: 1000000003222061505
send resp: 1000000003222948740
ID:1847 curr: 1000000003222949362 queue:57326498 service:887235 sjr:58213733
interval: 1666666
start req: 1000000003223802498 gen: 1000000003166402295
recv req: 1000000003223803279
send resp: 1000000003224640980
ID:1848 curr: 1000000003224641648 queue:57401652 service:837701 sjr:58239353
interval: 1666666
start req: 1000000003225507208 gen: 1000000003168068961
recv req: 1000000003225507977
send resp: 1000000003226364807
ID:1849 curr: 1000000003226365445 queue:57439654 service:856830 sjr:58296484
interval: 1666666
start req: 1000000003227220719 gen: 1000000003169735627
recv req: 1000000003227221497
send resp: 1000000003228063088
ID:1850 curr: 1000000003228063758 queue:57486540 service:841591 sjr:58328131
interval: 1666666
start req: 1000000003228928521 gen: 1000000003171402293
recv req: 1000000003228929292
send resp: 1000000003229787917
ID:1851 curr: 1000000003229788590 queue:57527672 service:858625 sjr:58386297
interval: 1666666
start req: 1000000003230646679 gen: 1000000003173068959
recv req: 1000000003230647465
send resp: 1000000003231515589
ID:1852 curr: 1000000003231516211 queue:57579128 service:868124 sjr:58447252
interval: 1666666
start req: 1000000003232362949 gen: 1000000003174735625
recv req: 1000000003232363734
send resp: 1000000003233222182
ID:1853 curr: 1000000003233222777 queue:57628704 service:858448 sjr:58487152
interval: 1666666
start req: 1000000003234077031 gen: 1000000003176402291
recv req: 1000000003234077811
send resp: 1000000003234906997
ID:1854 curr: 1000000003234907617 queue:57676140 service:829186 sjr:58505326
interval: 1666666
start req: 1000000003235752266 gen: 1000000003178068957
recv req: 1000000003235753046
send resp: 1000000003236611878
ID:1855 curr: 1000000003236612550 queue:57684761 service:858832 sjr:58543593
interval: 1666666
start req: 1000000003237465077 gen: 1000000003179735623
recv req: 1000000003237465865
send resp: 1000000003238294708
ID:1856 curr: 1000000003238295376 queue:57730910 service:828843 sjr:58559753
interval: 1666666
start req: 1000000003239129390 gen: 1000000003181402289
recv req: 1000000003239130172
send resp: 1000000003239981669
ID:1857 curr: 1000000003239982306 queue:57728520 service:851497 sjr:58580017
interval: 1666666
start req: 1000000003240823399 gen: 1000000003183068955
recv req: 1000000003240824199
send resp: 1000000003241697358
ID:1858 curr: 1000000003241698039 queue:57755925 service:873159 sjr:58629084
interval: 1666666
start req: 1000000003242550397 gen: 1000000003184735621
recv req: 1000000003242551193
send resp: 1000000003243417408
ID:1859 curr: 1000000003243418024 queue:57816188 service:866215 sjr:58682403
interval: 1666666
start req: 1000000003244284148 gen: 1000000003186402287
recv req: 1000000003244284938
send resp: 1000000003245122279
ID:1860 curr: 1000000003245122893 queue:57883265 service:837341 sjr:58720606
interval: 1666666
start req: 1000000003245968829 gen: 1000000003188068953
recv req: 1000000003245969613
send resp: 1000000003246832873
ID:1861 curr: 1000000003246833469 queue:57901256 service:863260 sjr:58764516
interval: 1666666
start req: 1000000003247699829 gen: 1000000003189735619
recv req: 1000000003247700617
send resp: 1000000003248539985
ID:1862 curr: 1000000003248540653 queue:57965666 service:839368 sjr:58805034
interval: 1666666
start req: 1000000003249393176 gen: 1000000003191402285
recv req: 1000000003249393938
send resp: 1000000003250295292
ID:1863 curr: 1000000003250295968 queue:57992329 service:901354 sjr:58893683
interval: 1666666
start req: 1000000003251178942 gen: 1000000003193068951
recv req: 1000000003251179735
send resp: 1000000003252014848
ID:1864 curr: 1000000003252015512 queue:58111448 service:835113 sjr:58946561
interval: 1666666
start req: 1000000003252872540 gen: 1000000003194735617
recv req: 1000000003252873330
send resp: 1000000003253734874
ID:1865 curr: 1000000003253735510 queue:58138349 service:861544 sjr:58999893
interval: 1666666
start req: 1000000003254597713 gen: 1000000003196402283
recv req: 1000000003254598510
send resp: 1000000003255437354
ID:1866 curr: 1000000003255437987 queue:58196860 service:838844 sjr:59035704
interval: 1666666
start req: 1000000003256298809 gen: 1000000003198068949
recv req: 1000000003256299580
send resp: 1000000003257162330
ID:1867 curr: 1000000003257162954 queue:58231255 service:862750 sjr:59094005
interval: 1666666
start req: 1000000003258023785 gen: 1000000003199735615
recv req: 1000000003258024570
send resp: 1000000003258894804
ID:1868 curr: 1000000003258895432 queue:58289583 service:870234 sjr:59159817
interval: 1666666
start req: 1000000003259750960 gen: 1000000003201402281
recv req: 1000000003259751733
send resp: 1000000003260621038
ID:1869 curr: 1000000003260621682 queue:58350096 service:869305 sjr:59219401
interval: 1666666
start req: 1000000003261499051 gen: 1000000003203068947
recv req: 1000000003261499816
send resp: 1000000003262348736
ID:1870 curr: 1000000003262349410 queue:58431543 service:848920 sjr:59280463
interval: 1666666
start req: 1000000003263234531 gen: 1000000003204735613
recv req: 1000000003263235322
send resp: 1000000003264102990
ID:1871 curr: 1000000003264103666 queue:58500385 service:867668 sjr:59368053
interval: 1666666
start req: 1000000003264978979 gen: 1000000003206402279
recv req: 1000000003264979779
send resp: 1000000003265822111
ID:1872 curr: 1000000003265822781 queue:58578170 service:842332 sjr:59420502
interval: 1666666
start req: 1000000003266694039 gen: 1000000003208068945
recv req: 1000000003266694815
send resp: 1000000003267552375
ID:1873 curr: 1000000003267552977 queue:58626472 service:857560 sjr:59484032
interval: 1666666
start req: 1000000003268411429 gen: 1000000003209735611
recv req: 1000000003268412221
send resp: 1000000003269281328
ID:1874 curr: 1000000003269281965 queue:58677247 service:869107 sjr:59546354
interval: 1666666
start req: 1000000003270150858 gen: 1000000003211402277
recv req: 1000000003270151643
send resp: 1000000003271011068
ID:1875 curr: 1000000003271011739 queue:58750037 service:859425 sjr:59609462
interval: 1666666
start req: 1000000003271879993 gen: 1000000003213068943
recv req: 1000000003271880788
send resp: 1000000003272708244
ID:1876 curr: 1000000003272708914 queue:58812515 service:827456 sjr:59639971
interval: 1666666
start req: 1000000003273569959 gen: 1000000003214735609
recv req: 1000000003273570734
send resp: 1000000003274433067
ID:1877 curr: 1000000003274433739 queue:58835797 service:862333 sjr:59698130
interval: 1666666
start req: 1000000003275315269 gen: 1000000003216402275
recv req: 1000000003275316049
send resp: 1000000003276154137
ID:1878 curr: 1000000003276154773 queue:58914410 service:838088 sjr:59752498
interval: 1666666
start req: 1000000003277029858 gen: 1000000003218068941
recv req: 1000000003277030635
send resp: 1000000003277917573
ID:1879 curr: 1000000003277918251 queue:58962372 service:886938 sjr:59849310
interval: 1666666
start req: 1000000003278799801 gen: 1000000003219735607
recv req: 1000000003278800582
send resp: 1000000003279652660
ID:1880 curr: 1000000003279653269 queue:59065584 service:852078 sjr:59917662
interval: 1666666
start req: 1000000003280554428 gen: 1000000003221402273
recv req: 1000000003280555205
send resp: 1000000003281421671
ID:1881 curr: 1000000003281422295 queue:59153556 service:866466 sjr:60020022
interval: 1666666
start req: 1000000003282311344 gen: 1000000003223068939
recv req: 1000000003282312115
send resp: 1000000003283161381
ID:1882 curr: 1000000003283162011 queue:59243806 service:849266 sjr:60093072
interval: 1666666
start req: 1000000003284056368 gen: 1000000003224735605
recv req: 1000000003284057145
send resp: 1000000003284920723
ID:1883 curr: 1000000003284921393 queue:59322210 service:863578 sjr:60185788
interval: 1666666
start req: 1000000003285803914 gen: 1000000003226402271
recv req: 1000000003285804686
send resp: 1000000003286683107
ID:1884 curr: 1000000003286683783 queue:59403091 service:878421 sjr:60281512
interval: 1666666
start req: 1000000003287571214 gen: 1000000003228068937
recv req: 1000000003287572008
send resp: 1000000003288452204
ID:1885 curr: 1000000003288452911 queue:59503778 service:880196 sjr:60383974
interval: 1666666
start req: 1000000003289351756 gen: 1000000003229735603
recv req: 1000000003289352529
send resp: 1000000003290201731
ID:1886 curr: 1000000003290202366 queue:59617561 service:849202 sjr:60466763
interval: 1666666
start req: 1000000003291093325 gen: 1000000003231402269
recv req: 1000000003291094121
send resp: 1000000003291961340
ID:1887 curr: 1000000003291961962 queue:59692474 service:867219 sjr:60559693
interval: 1666666
start req: 1000000003292843376 gen: 1000000003233068935
recv req: 1000000003292844158
send resp: 1000000003293698811
ID:1888 curr: 1000000003293699428 queue:59775840 service:854653 sjr:60630493
interval: 1666666
start req: 1000000003294596657 gen: 1000000003234735601
recv req: 1000000003294597435
send resp: 1000000003295506120
ID:1889 curr: 1000000003295506791 queue:59862505 service:908685 sjr:60771190
interval: 1666666
start req: 1000000003296400787 gen: 1000000003236402267
recv req: 1000000003296401547
send resp: 1000000003297241262
ID:1890 curr: 1000000003297241896 queue:59999914 service:839715 sjr:60839629
interval: 1666666
start req: 1000000003298114338 gen: 1000000003238068933
recv req: 1000000003298115076
send resp: 1000000003298978736
ID:1891 curr: 1000000003298979423 queue:60046830 service:863660 sjr:60910490
interval: 1666666
start req: 1000000003299847398 gen: 1000000003239735599
recv req: 1000000003299848183
send resp: 1000000003300694995
ID:1892 curr: 1000000003300695631 queue:60113220 service:846812 sjr:60960032
interval: 1666666
start req: 1000000003301575652 gen: 1000000003241402265
recv req: 1000000003301576450
send resp: 1000000003302443378
ID:1893 curr: 1000000003302444011 queue:60174818 service:866928 sjr:61041746
interval: 1666666
start req: 1000000003303311549 gen: 1000000003243068931
recv req: 1000000003303312329
send resp: 1000000003304154091
ID:1894 curr: 1000000003304154704 queue:60244011 service:841762 sjr:61085773
interval: 1666666
start req: 1000000003305023550 gen: 1000000003244735597
recv req: 1000000003305024339
send resp: 1000000003305926756
ID:1895 curr: 1000000003305927386 queue:60289372 service:902417 sjr:61191789
interval: 1666666
start req: 1000000003306786540 gen: 1000000003246402263
recv req: 1000000003306787329
send resp: 1000000003307627172
ID:1896 curr: 1000000003307627840 queue:60385734 service:839843 sjr:61225577
interval: 1666666
start req: 1000000003308486160 gen: 1000000003248068929
recv req: 1000000003308486953
send resp: 1000000003309356792
ID:1897 curr: 1000000003309357465 queue:60418697 service:869839 sjr:61288536
interval: 1666666
start req: 1000000003310234641 gen: 1000000003249735595
recv req: 1000000003310235423
send resp: 1000000003311082988
ID:1898 curr: 1000000003311083623 queue:60500463 service:847565 sjr:61348028
interval: 1666666
start req: 1000000003311964791 gen: 1000000003251402261
recv req: 1000000003311965574
send resp: 1000000003312828903
ID:1899 curr: 1000000003312829571 queue:60563981 service:863329 sjr:61427310
interval: 1666666
start req: 1000000003313705179 gen: 1000000003253068927
recv req: 1000000003313705952
send resp: 1000000003314579676
ID:1900 curr: 1000000003314580303 queue:60637652 service:873724 sjr:61511376
interval: 1666666
start req: 1000000003315447655 gen: 1000000003254735593
recv req: 1000000003315448443
send resp: 1000000003316315319
ID:1901 curr: 1000000003316315936 queue:60713467 service:866876 sjr:61580343
interval: 1666666
start req: 1000000003317185445 gen: 1000000003256402259
recv req: 1000000003317186226
send resp: 1000000003318029158
ID:1902 curr: 1000000003318029764 queue:60784573 service:842932 sjr:61627505
interval: 1666666
start req: 1000000003318905412 gen: 1000000003258068925
recv req: 1000000003318906201
send resp: 1000000003319772490
ID:1903 curr: 1000000003319773165 queue:60837951 service:866289 sjr:61704240
interval: 1666666
start req: 1000000003320642682 gen: 1000000003259735591
recv req: 1000000003320643478
send resp: 1000000003321487186
ID:1904 curr: 1000000003321487866 queue:60908567 service:843708 sjr:61752275
interval: 1666666
start req: 1000000003322356227 gen: 1000000003261402257
recv req: 1000000003322357018
send resp: 1000000003323249293
ID:1905 curr: 1000000003323249980 queue:60955448 service:892275 sjr:61847723
interval: 1666666
start req: 1000000003324121605 gen: 1000000003263068923
recv req: 1000000003324122387
send resp: 1000000003324972480
ID:1906 curr: 1000000003324973121 queue:61054105 service:850093 sjr:61904198
interval: 1666666
start req: 1000000003325856370 gen: 1000000003264735589
recv req: 1000000003325857155
