Global frequency set at 1000000000000 ticks per second
Creating DRAM rank2 0 
requestor writebacks, id 0
requestor functional, id 1
requestor interrupt, id 2
requestor cpu0.mmu.dtb.walker, id 3
requestor cpu0.mmu.itb.walker, id 4
requestor cpu0.inst, id 5
requestor cpu0.data, id 6
requestor cpu1.mmu.dtb.walker, id 7
requestor cpu1.mmu.itb.walker, id 8
requestor cpu1.inst, id 9
requestor cpu1.data, id 10
gem5 Simulator System.  https://www.gem5.org
gem5 is copyrighted software; use the --copyright option for details.

gem5 version 22.0.0.2
gem5 compiled May 13 2025 15:48:46
gem5 started May 13 2025 15:51:24
gem5 executing on a80651755162, pid 17464
command line: build/X86/gem5.opt configs/example/se.py -n=2 --env=/home/wjy/Pivot/mastreeenv.txt '--cmd=/home/wjy/Tailbench/tailbench/masstree/mttest_gem5se;/home/llj/dockerspec/benchspec/CPU/519.lbm_r/run/run_base_refrate_mytest-m64.0000/lbm_r_base.mytest-m64' '--options=-j1 mycsba masstree -s1;3000 /home/llj/dockerspec/benchspec/CPU/519.lbm_r/run/run_base_refrate_mytest-m64.0000/eference.dat 0 0 /home/llj/dockerspec/benchspec/CPU/519.lbm_r/run/run_base_refrate_mytest-m64.0000/100_100_130_ldc.of' --cpu-type=X86O3CPU --caches --l2cache --l3cache --l1d_size=48kB --l1d_assoc=12 --l1i_size=32kB --l1i_assoc=8 --l2_size=2MB --l2_assoc=16 --l3c_size=112MB --l3c_assoc=14 --l3b_size=8MB --l3b_assoc=1 --mem-type=DDR5_6400_4x8 --mem-size=16GB --latency_critical_num=1 --test_mode=MBA --MBACtrl=30% --dualRowBuffer

set MBA to  30%
0:latency 32 assoc 14 size 117440512
1:latency 382 assoc 1 size 8388608
**** REAL SIMULATION ****
MAIN_printInfo:
	grid size      : 100 x 100 x 130 = 1.30 * 10^6 Cells
	nTimeSteps     : 3000
	result file    : /home/llj/dockerspec/benchspec/CPU/519.lbm_r/run/run_base_refrate_mytest-m64.0000/eference.dat
	action         : nothing
	simulation type: lid-driven cavity
	obstacle file  : /home/llj/dockerspec/benchspec/CPU/519.lbm_r/run/run_base_refrate_mytest-m64.0000/100_100_130_ldc.of

TBENCH_MAXREQS = 10000
TBENCH_WARMUPREQS = 1000
TBENCH_MINSLEEPNS = 10000
TBENCH_RANDSEED = 
gem5 test
now 1000000000.004211
finish init 1000000000.004239
populate 0 sz 10000
start bench now 1000000000.014804
ID:0 queue:8815304 service:2820628 sjr:11635932
ID:1 queue:11328568 service:774224 sjr:12102792
ID:2 queue:12332015 service:766259 sjr:13098274
ID:3 queue:11543867 service:774147 sjr:12318014
ID:4 queue:7584717 service:761636 sjr:8346353
ID:5 queue:7618126 service:776503 sjr:8394629
ID:6 queue:9040862 service:757599 sjr:9798461
ID:7 queue:9005731 service:778240 sjr:9783971
ID:8 queue:10490834 service:761134 sjr:11251968
ID:9 queue:11834181 service:768603 sjr:12602784
ID:10 queue:11006759 service:762127 sjr:11768886
ID:11 queue:7157800 service:780212 sjr:7938012
ID:12 queue:7162948 service:759657 sjr:7922605
ID:13 queue:6520336 service:780751 sjr:7301087
ID:14 queue:5601275 service:766398 sjr:6367673
ID:15 queue:4220802 service:783739 sjr:5004541
ID:16 queue:5627540 service:761467 sjr:6389007
ID:17 queue:6314538 service:772970 sjr:7087508
ID:18 queue:4984948 service:763688 sjr:5748636
ID:19 queue:5573606 service:792070 sjr:6365676
ID:20 queue:171 service:770660 sjr:770831
ID:21 queue:180 service:781733 sjr:781913
ID:22 queue:1354023 service:760288 sjr:2114311
ID:23 queue:163 service:781652 sjr:781815
ID:24 queue:350445 service:764364 sjr:1114809
ID:25 queue:548872 service:779050 sjr:1327922
ID:26 queue:1413660 service:758220 sjr:2171880
ID:27 queue:2523991 service:782909 sjr:3306900
ID:28 queue:127 service:757933 sjr:758060
ID:29 queue:1346565 service:784948 sjr:2131513
ID:30 queue:1463884 service:758164 sjr:2222048
ID:31 queue:2174151 service:766932 sjr:2941083
ID:32 queue:2301511 service:763426 sjr:3064937
ID:33 queue:3606131 service:763792 sjr:4369923
ID:34 queue:4933395 service:758492 sjr:5691887
ID:35 queue:5445901 service:770289 sjr:6216190
ID:36 queue:2034793 service:762674 sjr:2797467
ID:37 queue:2267025 service:774169 sjr:3041194
ID:38 queue:3670875 service:755760 sjr:4426635
ID:39 queue:2201898 service:773232 sjr:2975130
ID:40 queue:3442384 service:755532 sjr:4197916
ID:41 queue:2586778 service:770252 sjr:3357030
ID:42 queue:2086024 service:759030 sjr:2845054
ID:43 queue:984943 service:768556 sjr:1753499
ID:44 queue:149 service:755922 sjr:756071
ID:45 queue:743695 service:764900 sjr:1508595
ID:46 queue:786133 service:759374 sjr:1545507
ID:47 queue:132 service:768839 sjr:768971
ID:48 queue:153 service:758204 sjr:758357
ID:49 queue:406724 service:766800 sjr:1173524
ID:50 queue:625825 service:757380 sjr:1383205
ID:51 queue:1715095 service:769259 sjr:2484354
ID:52 queue:1517151 service:757579 sjr:2274730
ID:53 queue:2928566 service:770034 sjr:3698600
ID:54 queue:3048664 service:756245 sjr:3804909
ID:55 queue:1762830 service:767300 sjr:2530130
ID:56 queue:153 service:755291 sjr:755444
ID:57 queue:125 service:770804 sjr:770929
ID:58 queue:1030389 service:762548 sjr:1792937
ID:59 queue:2233586 service:774569 sjr:3008155
ID:60 queue:3110332 service:757455 sjr:3867787
ID:61 queue:3520469 service:769899 sjr:4290368
ID:62 queue:2547105 service:760477 sjr:3307582
ID:63 queue:3475788 service:768770 sjr:4244558
ID:64 queue:4217031 service:757185 sjr:4974216
ID:65 queue:3591011 service:769952 sjr:4360963
ID:66 queue:2795609 service:759242 sjr:3554851
ID:67 queue:3299609 service:768742 sjr:4068351
ID:68 queue:4464971 service:760776 sjr:5225747
ID:69 queue:2212211 service:767193 sjr:2979404
ID:70 queue:180 service:757980 sjr:758160
ID:71 queue:1162408 service:773288 sjr:1935696
ID:72 queue:1609002 service:759117 sjr:2368119
ID:73 queue:1427127 service:771172 sjr:2198299
ID:74 queue:1585968 service:762941 sjr:2348909
ID:75 queue:151 service:772702 sjr:772853
ID:76 queue:1044741 service:764562 sjr:1809303
ID:77 queue:558232 service:764373 sjr:1322605
ID:78 queue:169 service:765459 sjr:765628
ID:79 queue:159 service:764949 sjr:765108
ID:80 queue:194306 service:757716 sjr:952022
ID:81 queue:1212878 service:767934 sjr:1980812
ID:82 queue:168 service:756872 sjr:757040
ID:83 queue:1168362 service:767655 sjr:1936017
ID:84 queue:1601819 service:757968 sjr:2359787
ID:85 queue:144 service:766327 sjr:766471
ID:86 queue:1135933 service:758628 sjr:1894561
ID:87 queue:1704895 service:766962 sjr:2471857
ID:88 queue:2907626 service:758372 sjr:3665998
ID:89 queue:3169353 service:782447 sjr:3951800
ID:90 queue:3475006 service:756970 sjr:4231976
ID:91 queue:179 service:783317 sjr:783496
ID:92 queue:1022484 service:763769 sjr:1786253
ID:93 queue:137 service:784671 sjr:784808
ID:94 queue:167 service:794020 sjr:794187
ID:95 queue:110555 service:779625 sjr:890180
ID:96 queue:175 service:761779 sjr:761954
ID:97 queue:260647 service:778983 sjr:1039630
ID:98 queue:129 service:767391 sjr:767520
ID:99 queue:152 service:816223 sjr:816375
ID:100 queue:191 service:757860 sjr:758051
ID:101 queue:175 service:792735 sjr:792910
ID:102 queue:860149 service:754639 sjr:1614788
ID:103 queue:904529 service:780767 sjr:1685296
ID:104 queue:1353340 service:792877 sjr:2146217
ID:105 queue:167 service:779978 sjr:780145
ID:106 queue:141 service:758942 sjr:759083
ID:107 queue:185 service:779712 sjr:779897
ID:108 queue:148 service:753112 sjr:753260
ID:109 queue:1455332 service:777325 sjr:2232657
ID:110 queue:1483989 service:790055 sjr:2274044
ID:111 queue:2881976 service:779426 sjr:3661402
ID:112 queue:3067489 service:761403 sjr:3828892
ID:113 queue:2295089 service:773980 sjr:3069069
ID:114 queue:165 service:756510 sjr:756675
ID:115 queue:134 service:813361 sjr:813495
ID:116 queue:1261351 service:746244 sjr:2007595
ID:117 queue:181 service:783256 sjr:783437
ID:118 queue:359633 service:753433 sjr:1113066
ID:119 queue:420431 service:780907 sjr:1201338
ID:120 queue:806650 service:790722 sjr:1597372
ID:121 queue:183 service:776315 sjr:776498
ID:122 queue:1063054 service:757089 sjr:1820143
ID:123 queue:2245495 service:779678 sjr:3025173
ID:124 queue:1875368 service:753209 sjr:2628577
ID:125 queue:3393309 service:813665 sjr:4206974
ID:126 queue:2384533 service:755900 sjr:3140433
ID:127 queue:2820958 service:786527 sjr:3607485
ID:128 queue:2103676 service:761856 sjr:2865532
ID:129 queue:38660 service:779636 sjr:818296
ID:130 queue:182 service:754528 sjr:754710
ID:131 queue:1336741 service:2882287 sjr:4219028
ID:132 queue:3149415 service:851068 sjr:4000483
ID:133 queue:4436721 service:861795 sjr:5298516
ID:134 queue:5230370 service:851188 sjr:6081558
ID:135 queue:1102611 service:860595 sjr:1963206
ID:136 queue:2252442 service:854513 sjr:3106955
ID:137 queue:3355726 service:861772 sjr:4217498
ID:138 queue:2070408 service:851571 sjr:2921979
ID:139 queue:3175540 service:861061 sjr:4036601
ID:140 queue:4930351 service:851022 sjr:5781373
ID:141 queue:130 service:860485 sjr:860615
ID:142 queue:172 service:850365 sjr:850537
ID:143 queue:751685 service:859240 sjr:1610925
ID:144 queue:2138204 service:849731 sjr:2987935
ID:145 queue:3561506 service:860156 sjr:4421662
ID:146 queue:4743649 service:852630 sjr:5596279
ID:147 queue:6298498 service:860676 sjr:7159174
ID:148 queue:6061539 service:850936 sjr:6912475
ID:149 queue:4661832 service:861987 sjr:5523819
ID:150 queue:3644025 service:850232 sjr:4494257
ID:151 queue:3403653 service:861527 sjr:4265180
ID:152 queue:3357914 service:854426 sjr:4212340
ID:153 queue:4361479 service:860119 sjr:5221598
ID:154 queue:5888254 service:851595 sjr:6739849
ID:155 queue:6162798 service:858448 sjr:7021246
ID:156 queue:6164292 service:850071 sjr:7014363
ID:157 queue:5502919 service:857996 sjr:6360915
ID:158 queue:6924660 service:848519 sjr:7773179
ID:159 queue:4754283 service:859009 sjr:5613292
ID:160 queue:4902170 service:848635 sjr:5750805
ID:161 queue:5908075 service:859785 sjr:6767860
ID:162 queue:6180518 service:852946 sjr:7033464
ID:163 queue:6175966 service:857087 sjr:7033053
ID:164 queue:6822471 service:851238 sjr:7673709
ID:165 queue:7665537 service:856347 sjr:8521884
ID:166 queue:8254273 service:850997 sjr:9105270
ID:167 queue:9040361 service:858008 sjr:9898369
ID:168 queue:10652040 service:851552 sjr:11503592
ID:169 queue:11834940 service:860263 sjr:12695203
ID:170 queue:11356305 service:850771 sjr:12207076
ID:171 queue:10515316 service:858188 sjr:11373504
ID:172 queue:6498226 service:851314 sjr:7349540
ID:173 queue:2633874 service:859330 sjr:3493204
ID:174 queue:3175880 service:851229 sjr:4027109
ID:175 queue:2778076 service:859939 sjr:3638015
ID:176 queue:2693526 service:851630 sjr:3545156
ID:177 queue:4136037 service:859776 sjr:4995813
ID:178 queue:5069770 service:852504 sjr:5922274
ID:179 queue:5359187 service:860949 sjr:6220136
ID:180 queue:7106480 service:848554 sjr:7955034
ID:181 queue:6811692 service:859679 sjr:7671371
ID:182 queue:3589500 service:850636 sjr:4440136
ID:183 queue:152 service:856844 sjr:856996
ID:184 queue:162 service:854820 sjr:854982
ID:185 queue:555223 service:861671 sjr:1416894
ID:186 queue:2288720 service:849735 sjr:3138455
ID:187 queue:1600260 service:860358 sjr:2460618
ID:188 queue:2229522 service:850715 sjr:3080237
ID:189 queue:1210534 service:861460 sjr:2071994
ID:190 queue:609122 service:851117 sjr:1460239
ID:191 queue:151 service:860602 sjr:860753
ID:192 queue:1768591 service:852231 sjr:2620822
ID:193 queue:3371212 service:860383 sjr:4231595
ID:194 queue:475828 service:852565 sjr:1328393
ID:195 queue:170 service:859151 sjr:859321
ID:196 queue:1763087 service:847145 sjr:2610232
ID:197 queue:2065186 service:857472 sjr:2922658
ID:198 queue:2268492 service:848622 sjr:3117114
ID:199 queue:3547449 service:859241 sjr:4406690
ID:200 queue:3351660 service:850322 sjr:4201982
ID:201 queue:2647817 service:858021 sjr:3505838
ID:202 queue:3764578 service:849454 sjr:4614032
ID:203 queue:4600427 service:858551 sjr:5458978
ID:204 queue:5632881 service:848027 sjr:6480908
ID:205 queue:7178397 service:861094 sjr:8039491
ID:206 queue:5964952 service:849149 sjr:6814101
ID:207 queue:7616920 service:858725 sjr:8475645
ID:208 queue:9042886 service:849878 sjr:9892764
ID:209 queue:10104731 service:859545 sjr:10964276
ID:210 queue:10581432 service:852135 sjr:11433567
ID:211 queue:10882246 service:857837 sjr:11740083
ID:212 queue:12330829 service:850295 sjr:13181124
ID:213 queue:10510039 service:857651 sjr:11367690
ID:214 queue:10559864 service:851662 sjr:11411526
ID:215 queue:11523622 service:861057 sjr:12384679
ID:216 queue:4633648 service:851246 sjr:5484894
ID:217 queue:6398366 service:859367 sjr:7257733
ID:218 queue:8114632 service:851145 sjr:8965777
ID:219 queue:8537123 service:858557 sjr:9395680
ID:220 queue:7626091 service:852908 sjr:8478999
ID:221 queue:7858689 service:857363 sjr:8716052
ID:222 queue:9371219 service:849508 sjr:10220727
ID:223 queue:10720258 service:859719 sjr:11579977
ID:224 queue:10592056 service:853446 sjr:11445502
ID:225 queue:12093227 service:857308 sjr:12950535
ID:226 queue:7707543 service:852019 sjr:8559562
ID:227 queue:5834456 service:860225 sjr:6694681
ID:228 queue:7011628 service:849679 sjr:7861307
ID:229 queue:7673428 service:860494 sjr:8533922
ID:230 queue:4886572 service:851682 sjr:5738254
ID:231 queue:3795443 service:860872 sjr:4656315
ID:232 queue:4370528 service:853368 sjr:5223896
ID:233 queue:3950563 service:857725 sjr:4808288
ID:234 queue:5254455 service:850199 sjr:6104654
ID:235 queue:5437588 service:855653 sjr:6293241
ID:236 queue:6822739 service:849089 sjr:7671828
ID:237 queue:7457306 service:857314 sjr:8314620
ID:238 queue:6905404 service:851248 sjr:7756652
ID:239 queue:5054935 service:858436 sjr:5913371
ID:240 queue:141 service:849384 sjr:849525
ID:241 queue:1598845 service:857611 sjr:2456456
ID:242 queue:438449 service:851536 sjr:1289985
ID:243 queue:1630777 service:855056 sjr:2485833
ID:244 queue:470725 service:851652 sjr:1322377
ID:245 queue:150 service:857434 sjr:857584
ID:246 queue:163 service:850358 sjr:850521
ID:247 queue:1692983 service:859880 sjr:2552863
ID:248 queue:2968232 service:849398 sjr:3817630
ID:249 queue:2619843 service:857592 sjr:3477435
ID:250 queue:3465163 service:850412 sjr:4315575
ID:251 queue:4699827 service:859796 sjr:5559623
ID:252 queue:6113278 service:851428 sjr:6964706
ID:253 queue:7533129 service:858132 sjr:8391261
ID:254 queue:7138454 service:850904 sjr:7989358
ID:255 queue:2947969 service:857290 sjr:3805259
ID:256 queue:2781162 service:851002 sjr:3632164
ID:257 queue:4526101 service:860164 sjr:5386265
ID:258 queue:3743529 service:851121 sjr:4594650
ID:259 queue:5400907 service:859593 sjr:6260500
ID:260 queue:5712608 service:849900 sjr:6562508
ID:261 queue:7343957 service:856476 sjr:8200433
ID:262 queue:1556779 service:852506 sjr:2409285
ID:263 queue:2527820 service:860756 sjr:3388576
ID:264 queue:1585589 service:850819 sjr:2436408
ID:265 queue:2977004 service:859293 sjr:3836297
ID:266 queue:177 service:851671 sjr:851848
ID:267 queue:1179765 service:859004 sjr:2038769
ID:268 queue:2690853 service:852021 sjr:3542874
ID:269 queue:4110563 service:858664 sjr:4969227
ID:270 queue:5663394 service:852062 sjr:6515456
ID:271 queue:6512495 service:860231 sjr:7372726
ID:272 queue:7496574 service:850770 sjr:8347344
ID:273 queue:7544252 service:857350 sjr:8401602
ID:274 queue:6478471 service:845886 sjr:7324357
ID:275 queue:5834429 service:906152 sjr:6740581
ID:276 queue:2183043 service:846852 sjr:3029895
ID:277 queue:3047434 service:873266 sjr:3920700
ID:278 queue:3623049 service:843673 sjr:4466722
ID:279 queue:4833330 service:867939 sjr:5701269
ID:280 queue:5522921 service:878591 sjr:6401512
ID:281 queue:6633826 service:866495 sjr:7500321
ID:282 queue:7929257 service:840880 sjr:8770137
ID:283 queue:8187579 service:867639 sjr:9055218
ID:284 queue:5986894 service:843337 sjr:6830231
ID:285 queue:5260266 service:901709 sjr:6161975
ID:286 queue:6113349 service:844841 sjr:6958190
ID:287 queue:6643263 service:869701 sjr:7512964
ID:288 queue:5256643 service:845556 sjr:6102199
ID:289 queue:7012216 service:868657 sjr:7880873
ID:290 queue:6612065 service:883612 sjr:7495677
ID:291 queue:7998775 service:870696 sjr:8869471
ID:292 queue:9498218 service:848077 sjr:10346295
ID:293 queue:5423659 service:871324 sjr:6294983
ID:294 queue:5348860 service:844089 sjr:6192949
ID:295 queue:6255642 service:868818 sjr:7124460
ID:296 queue:6615814 service:881455 sjr:7497269
ID:297 queue:4818301 service:869062 sjr:5687363
ID:298 queue:5804708 service:848054 sjr:6652762
ID:299 queue:5571250 service:868766 sjr:6440016
ID:300 queue:7271982 service:848191 sjr:8120173
ID:301 queue:6122701 service:909187 sjr:7031888
ID:302 queue:6483336 service:851627 sjr:7334963
ID:303 queue:7753254 service:873211 sjr:8626465
ID:304 queue:9356667 service:850421 sjr:10207088
ID:305 queue:8672283 service:874545 sjr:9546828
ID:306 queue:9856451 service:884422 sjr:10740873
ID:307 queue:10706721 service:875282 sjr:11582003
ID:308 queue:11969084 service:854378 sjr:12823462
ID:309 queue:12472245 service:877245 sjr:13349490
ID:310 queue:6700947 service:856782 sjr:7557729
ID:311 queue:8404670 service:877361 sjr:9282031
ID:312 queue:10134290 service:884026 sjr:11018316
ID:313 queue:10143979 service:871900 sjr:11015879
ID:314 queue:11132711 service:849077 sjr:11981788
ID:315 queue:11360329 service:871970 sjr:12232299
ID:316 queue:12115331 service:849372 sjr:12964703
ID:317 queue:7064307 service:901332 sjr:7965639
ID:318 queue:4839628 service:843926 sjr:5683554
ID:319 queue:6278842 service:862697 sjr:7141539
ID:320 queue:6012700 service:841325 sjr:6854025
ID:321 queue:2395124 service:864808 sjr:3259932
ID:322 queue:795030 service:872399 sjr:1667429
ID:323 queue:883062 service:869315 sjr:1752377
ID:324 queue:156 service:844094 sjr:844250
ID:325 queue:1423061 service:869578 sjr:2292639
ID:326 queue:2367266 service:842865 sjr:3210131
ID:327 queue:3923730 service:902597 sjr:4826327
ID:328 queue:5697590 service:843966 sjr:6541556
ID:329 queue:3569994 service:866910 sjr:4436904
ID:330 queue:3108452 service:844973 sjr:3953425
ID:331 queue:2472312 service:869290 sjr:3341602
ID:332 queue:3831850 service:844926 sjr:4676776
ID:333 queue:4744475 service:897595 sjr:5642070
ID:334 queue:6249316 service:842404 sjr:7091720
ID:335 queue:7500816 service:871947 sjr:8372763
ID:336 queue:7525101 service:847219 sjr:8372320
ID:337 queue:9235482 service:864056 sjr:10099538
ID:338 queue:8128781 service:879239 sjr:9008020
ID:339 queue:9755316 service:872121 sjr:10627437
ID:340 queue:6344052 service:845570 sjr:7189622
ID:341 queue:6965244 service:875540 sjr:7840784
ID:342 queue:5196968 service:846807 sjr:6043775
ID:343 queue:5110448 service:909299 sjr:6019747
ID:344 queue:5465215 service:848776 sjr:6313991
ID:345 queue:6861678 service:882027 sjr:7743705
ID:346 queue:6950831 service:858380 sjr:7809211
ID:347 queue:7204409 service:877461 sjr:8081870
ID:348 queue:6783690 service:844404 sjr:7628094
ID:349 queue:6921630 service:903713 sjr:7825343
ID:350 queue:6516102 service:856219 sjr:7372321
ID:351 queue:6574281 service:878029 sjr:7452310
ID:352 queue:7189862 service:852510 sjr:8042372
ID:353 queue:7544245 service:877532 sjr:8421777
ID:354 queue:9254274 service:886741 sjr:10141015
ID:355 queue:9567094 service:883953 sjr:10451047
ID:356 queue:11280890 service:857465 sjr:12138355
ID:357 queue:12812016 service:882852 sjr:13694868
ID:358 queue:12989367 service:864067 sjr:13853434
ID:359 queue:12868903 service:915446 sjr:13784349
ID:360 queue:11725560 service:864236 sjr:12589796
ID:361 queue:12153448 service:892804 sjr:13046252
ID:362 queue:11566259 service:863379 sjr:12429638
ID:363 queue:11994473 service:890495 sjr:12884968
ID:364 queue:11311669 service:898483 sjr:12210152
ID:365 queue:12469540 service:885055 sjr:13354595
ID:366 queue:13593410 service:856849 sjr:14450259
ID:367 queue:13834843 service:883742 sjr:14718585
ID:368 queue:15086470 service:857635 sjr:15944105
ID:369 queue:15026956 service:879715 sjr:15906671
ID:370 queue:11749795 service:887446 sjr:12637241
ID:371 queue:10098032 service:875435 sjr:10973467
ID:372 queue:11351096 service:851031 sjr:12202127
ID:373 queue:8507801 service:870555 sjr:9378356
ID:374 queue:8165561 service:843739 sjr:9009300
ID:375 queue:4404514 service:899448 sjr:5303962
ID:376 queue:2281934 service:844201 sjr:3126135
ID:377 queue:133 service:866282 sjr:866415
ID:378 queue:1489438 service:843605 sjr:2333043
ID:379 queue:791927 service:863771 sjr:1655698
ID:380 queue:2303854 service:883874 sjr:3187728
ID:381 queue:3877119 service:868437 sjr:4745556
ID:382 queue:4789940 service:846968 sjr:5636908
ID:383 queue:3692091 service:870862 sjr:4562953
ID:384 queue:4644224 service:858706 sjr:5502930
ID:385 queue:4707204 service:878760 sjr:5585964
ID:386 queue:6036781 service:875649 sjr:6912430
ID:387 queue:475176 service:873396 sjr:1348572
ID:388 queue:881893 service:845495 sjr:1727388
ID:389 queue:139 service:870134 sjr:870273
ID:390 queue:1408700 service:840848 sjr:2249548
ID:391 queue:2802209 service:893383 sjr:3695592
ID:392 queue:3618771 service:844285 sjr:4463056
ID:393 queue:4237428 service:865227 sjr:5102655
ID:394 queue:3872839 service:846949 sjr:4719788
ID:395 queue:5483809 service:866691 sjr:6350500
ID:396 queue:2677591 service:879893 sjr:3557484
ID:397 queue:153 service:864244 sjr:864397
ID:398 queue:1368628 service:837380 sjr:2206008
ID:399 queue:3017339 service:865257 sjr:3882596
ID:400 queue:3280486 service:844224 sjr:4124710
ID:401 queue:4359555 service:900236 sjr:5259791
ID:402 queue:4369789 service:844833 sjr:5214622
ID:403 queue:2748739 service:870910 sjr:3619649
ID:404 queue:150 service:843379 sjr:843529
ID:405 queue:172 service:867516 sjr:867688
ID:406 queue:146 service:852259 sjr:852405
ID:407 queue:1313343 service:902890 sjr:2216233
ID:408 queue:551665 service:847902 sjr:1399567
ID:409 queue:2120468 service:870602 sjr:2991070
ID:410 queue:161 service:847762 sjr:847923
ID:411 queue:1531430 service:870207 sjr:2401637
ID:412 queue:2198601 service:883540 sjr:3082141
ID:413 queue:1711955 service:877394 sjr:2589349
ID:414 queue:110165 service:851736 sjr:961901
ID:415 queue:128 service:877851 sjr:877979
ID:416 queue:173 service:845949 sjr:846122
ID:417 queue:380109 service:894580 sjr:1274689
ID:418 queue:1188157 service:842511 sjr:2030668
ID:419 queue:551270 service:866559 sjr:1417829
ID:420 queue:2127429 service:836370 sjr:2963799
ID:421 queue:2522251 service:852861 sjr:3375112
ID:422 queue:3668104 service:834498 sjr:4502602
ID:423 queue:181 service:902505 sjr:902686
ID:424 queue:151 service:836120 sjr:836271
ID:425 queue:773604 service:870762 sjr:1644366
ID:426 queue:145 service:853913 sjr:854058
ID:427 queue:1548493 service:881753 sjr:2430246
ID:428 queue:1963248 service:887112 sjr:2850360
ID:429 queue:2315842 service:866277 sjr:3182119
ID:430 queue:171 service:834932 sjr:835103
ID:431 queue:1358508 service:867549 sjr:2226057
ID:432 queue:2910259 service:845959 sjr:3756218
ID:433 queue:3552019 service:909391 sjr:4461410
ID:434 queue:193 service:845624 sjr:845817
ID:435 queue:1251496 service:876386 sjr:2127882
Exiting @ tick 849214203500 because user interrupt received
