Global frequency set at 1000000000000 ticks per second
Creating DRAM rank2 0 
requestor writebacks, id 0
requestor functional, id 1
requestor interrupt, id 2
requestor cpu0.mmu.dtb.walker, id 3
requestor cpu0.mmu.itb.walker, id 4
requestor cpu0.inst, id 5
requestor cpu0.data, id 6
requestor cpu1.mmu.dtb.walker, id 7
requestor cpu1.mmu.itb.walker, id 8
requestor cpu1.inst, id 9
requestor cpu1.data, id 10
gem5 Simulator System.  https://www.gem5.org
gem5 is copyrighted software; use the --copyright option for details.

gem5 version 22.0.0.2
gem5 compiled May 27 2025 02:30:30
gem5 started May 27 2025 02:45:44
gem5 executing on 6cd1e2710dee, pid 42320
command line: build/X86/gem5.opt configs/example/se.py -n=2 --env=/home/wjy/Pivot/mastreeenv.txt '--cmd=/home/wjy/Tailbench/tailbench/masstree/mttest_gem5se;/home/llj/dockerspec/benchspec/CPU/519.lbm_r/run/run_base_refrate_mytest-m64.0000/lbm_r_base.mytest-m64' '--options=-j1 mycsba masstree -s1;3000 /home/llj/dockerspec/benchspec/CPU/519.lbm_r/run/run_base_refrate_mytest-m64.0000/eference.dat 0 0 /home/llj/dockerspec/benchspec/CPU/519.lbm_r/run/run_base_refrate_mytest-m64.0000/100_100_130_ldc.of' --cpu-type=X86O3CPU --caches --l2cache --l3cache --l1d_size=48kB --l1d_assoc=12 --l1i_size=32kB --l1i_assoc=8 --l2_size=2MB --l2_assoc=16 --l3c_size=112MB --l3c_assoc=14 --l3b_size=8MB --l3b_assoc=1 --mem-type=DDR5_6400_4x8 --mem-size=16GB --latency_critical_num=1 --test_mode=MBA --MBACtrl=30%

set MBA to  30%
0:latency 32 assoc 14 size 117440512
1:latency 382 assoc 1 size 8388608
**** REAL SIMULATION ****
row miss channel 0 rank 0 bank 22 row 7 partid 1 0x3db40
row miss channel 0 rank 0 bank 26 row 12 partid 1 0x66900
row miss channel 0 rank 0 bank 16 row 14 partid 2 0x742c0
row hit channel 0 rank 0 bank 18 row 19 partid 2 0x9ca80
row hit channel 0 rank 0 bank 21 row 7 partid 1 0x3d440
row hit channel 0 rank 0 bank 16 row 14 partid 2 0x74300
row miss channel 0 rank 0 bank 20 row 7 partid 1 0x3d3c0
row miss channel 0 rank 0 bank 16 row 14 partid 2 0x741c0
row miss channel 0 rank 0 bank 31 row 10 partid 1 0x57e40
row hit channel 0 rank 0 bank 14 row 19 partid 2 0x9ba40
row hit channel 0 rank 0 bank 13 row 18 partid 2 0x93540
row miss channel 0 rank 0 bank 24 row 15 partid 2 0x7e140
row miss channel 0 rank 0 bank 9 row 14 partid 2 0x72540
row miss channel 0 rank 0 bank 31 row 7 partid 1 0x3ff00
row miss channel 0 rank 0 bank 1 row 13 partid 1 0x68580
row miss channel 0 rank 0 bank 10 row 7 partid 1 0x3a900
row miss channel 0 rank 0 bank 18 row 17 partid 2 0x8ca80
row miss channel 0 rank 0 bank 26 row 19 partid 2 0x9eb40
row miss channel 0 rank 0 bank 18 row 17 partid 2 0x8cb00
row miss channel 0 rank 0 bank 14 row 19 partid 2 0x9b880
row miss channel 0 rank 0 bank 1 row 13 partid 1 0x68740
row miss channel 0 rank 0 bank 27 row 19 partid 2 0x9ecc0
row miss channel 0 rank 0 bank 20 row 19 partid 2 0x9d100
row miss channel 0 rank 0 bank 5 row 9 partid 1 0x49500
row miss channel 0 rank 0 bank 0 row 8 partid 1 0x40340
row miss channel 0 rank 0 bank 1 row 11 partid 1 0x58500
row hit channel 0 rank 0 bank 6 row 13 partid 1 0x69900
row miss channel 0 rank 0 bank 19 row 9 partid 1 0x4cd40
row miss channel 0 rank 0 bank 3 row 13 partid 1 0x68c00
row miss channel 0 rank 0 bank 23 row 8 partid 1 0x45c40
row miss channel 0 rank 0 bank 23 row 8 partid 1 0x45e40
row hit channel 0 rank 0 bank 3 row 13 partid 1 0x68d80
row miss channel 0 rank 0 bank 20 row 7 partid 1 0x3d100
row miss channel 0 rank 0 bank 3 row 8 partid 1 0x40dc0
row miss channel 0 rank 0 bank 8 row 11 partid 1 0x5a280
row miss channel 0 rank 0 bank 6 row 13 partid 1 0x69800
row miss channel 0 rank 0 bank 18 row 17 partid 2 0x8c8c0
row miss channel 0 rank 0 bank 25 row 8 partid 1 0x46680
row miss channel 0 rank 0 bank 20 row 10 partid 1 0x55380
row miss channel 0 rank 0 bank 21 row 17 partid 2 0x8d680
row miss channel 0 rank 0 bank 22 row 10 partid 1 0x55a00
row miss channel 0 rank 0 bank 23 row 7 partid 1 0x3df00
row miss channel 0 rank 0 bank 5 row 13 partid 1 0x69580
row miss channel 0 rank 0 bank 12 row 8 partid 1 0x43040
row miss channel 0 rank 0 bank 25 row 15 partid 2 0x7e540
row miss channel 0 rank 0 bank 5 row 13 partid 1 0x69680
row miss channel 0 rank 0 bank 20 row 19 partid 2 0x9d140
row miss channel 0 rank 0 bank 23 row 7 partid 1 0x3df40
row miss channel 0 rank 0 bank 15 row 8 partid 1 0x43c80
row miss channel 0 rank 0 bank 9 row 21 partid 1 0xaa640
row miss channel 0 rank 0 bank 12 row 13 partid 2 0x6b1c0
row hit channel 0 rank 0 bank 21 row 19 partid 2 0x9d580
row hit channel 0 rank 0 bank 12 row 13 partid 2 0x6b200
row miss channel 0 rank 0 bank 16 row 8 partid 1 0x44200
row miss channel 0 rank 0 bank 10 row 8 partid 1 0x42b00
row miss channel 0 rank 0 bank 3 row 14 partid 2 0x70d80
row hit channel 0 rank 0 bank 3 row 14 partid 2 0x70dc0
row miss channel 0 rank 0 bank 20 row 19 partid 2 0x9d200
row miss channel 0 rank 0 bank 16 row 8 partid 1 0x44100
row miss channel 0 rank 0 bank 16 row 8 partid 1 0x44340
row miss channel 0 rank 0 bank 17 row 8 partid 1 0x447c0
row miss channel 0 rank 0 bank 3 row 14 partid 2 0x70e80
row hit channel 0 rank 0 bank 3 row 14 partid 2 0x70ec0
row miss channel 0 rank 0 bank 21 row 19 partid 2 0x9d740
row miss channel 0 rank 0 bank 25 row 21 partid 1 0xae640
row miss channel 0 rank 0 bank 20 row 14 partid 2 0x75340
row miss channel 0 rank 0 bank 28 row 19 partid 2 0x9f000
row miss channel 0 rank 0 bank 21 row 14 partid 2 0x75680
row miss channel 0 rank 0 bank 22 row 19 partid 2 0x9d840
row miss channel 0 rank 0 bank 24 row 21 partid 1 0xae3c0
row miss channel 0 rank 0 bank 14 row 22 partid 1 0xb3a00
row miss channel 0 rank 0 bank 12 row 11 partid 1 0x5b3c0
row miss channel 0 rank 0 bank 28 row 22 partid 1 0xb73c0
row miss channel 0 rank 0 bank 11 row 15 partid 2 0x7adc0
row hit channel 0 rank 0 bank 23 row 19 partid 2 0x9dd40
row miss channel 0 rank 0 bank 7 row 23 partid 1 0xb9d80
row hit channel 0 rank 0 bank 7 row 23 partid 1 0xb9dc0
row hit channel 0 rank 0 bank 7 row 23 partid 1 0xb9e00
row miss channel 0 rank 0 bank 7 row 23 partid 1 0xb9e80
row hit channel 0 rank 0 bank 28 row 22 partid 1 0xb7040
row hit channel 0 rank 0 bank 7 row 23 partid 1 0xb9ec0
row miss channel 0 rank 0 bank 8 row 14 partid 2 0x72100
row miss channel 0 rank 0 bank 23 row 14 partid 2 0x75e80
row miss channel 0 rank 0 bank 28 row 17 partid 2 0x8f000
row miss channel 0 rank 0 bank 11 row 24 partid 1 0xc2f40
row miss channel 0 rank 0 bank 30 row 22 partid 1 0xb7900
row miss channel 0 rank 0 bank 11 row 15 partid 2 0x7afc0
row miss channel 0 rank 0 bank 25 row 19 partid 2 0x9e640
row miss channel 0 rank 0 bank 30 row 22 partid 1 0xb7940
row hit channel 0 rank 0 bank 3 row 25 partid 1 0xc8e40
row hit channel 0 rank 0 bank 3 row 25 partid 1 0xc8e80
row miss channel 0 rank 0 bank 14 row 16 partid 2 0x83880
row miss channel 0 rank 0 bank 23 row 25 partid 1 0xcde40
row miss channel 0 rank 0 bank 8 row 15 partid 2 0x7a2c0
row miss channel 0 rank 0 bank 12 row 15 partid 2 0x7b2c0
row miss channel 0 rank 0 bank 27 row 17 partid 2 0x8eec0
row miss channel 0 rank 0 bank 24 row 19 partid 2 0x9e140
row miss channel 0 rank 0 bank 11 row 17 partid 2 0x8acc0
row miss channel 0 rank 0 bank 14 row 9 partid 1 0x4ba40
row hit channel 0 rank 0 bank 14 row 9 partid 1 0x4b940
row miss channel 0 rank 0 bank 25 row 25 partid 1 0xce540
row miss channel 0 rank 0 bank 10 row 11 partid 1 0x5ab80
row miss channel 0 rank 0 bank 19 row 10 partid 1 0x54f40
row miss channel 0 rank 0 bank 20 row 10 partid 1 0x55000
row miss channel 0 rank 0 bank 10 row 17 partid 2 0x8a800
row miss channel 0 rank 0 bank 31 row 14 partid 2 0x77dc0
row miss channel 0 rank 0 bank 24 row 19 partid 2 0x9e380
row hit channel 0 rank 0 bank 27 row 27 partid 1 0xdee80
row miss channel 0 rank 0 bank 11 row 14 partid 2 0x72f00
row miss channel 0 rank 0 bank 25 row 19 partid 2 0x9e480
row miss channel 0 rank 0 bank 13 row 15 partid 2 0x7b400
row miss channel 0 rank 0 bank 28 row 27 partid 1 0xdf340
row miss channel 0 rank 0 bank 5 row 28 partid 2 0xe1440
row miss channel 0 rank 0 bank 23 row 28 partid 2 0xe5dc0
row miss channel 0 rank 0 bank 27 row 25 partid 1 0xcee40
row miss channel 0 rank 0 bank 4 row 15 partid 2 0x79340
row miss channel 0 rank 0 bank 25 row 28 partid 1 0xe6400
row miss channel 0 rank 0 bank 17 row 29 partid 1 0xec7c0
row miss channel 0 rank 0 bank 24 row 29 partid 1 0xee000
row miss channel 0 rank 0 bank 15 row 28 partid 2 0xe3f00
row miss channel 0 rank 0 bank 9 row 9 partid 1 0x4a700
row miss channel 0 rank 0 bank 11 row 9 partid 1 0x4ae80
row miss channel 0 rank 0 bank 2 row 30 partid 1 0xf0bc0
row miss channel 0 rank 0 bank 30 row 29 partid 1 0xefa00
row miss channel 0 rank 0 bank 3 row 30 partid 1 0xf0c00
row hit channel 0 rank 0 bank 3 row 30 partid 1 0xf0c40
row miss channel 0 rank 0 bank 30 row 29 partid 1 0xefac0
row miss channel 0 rank 0 bank 17 row 30 partid 1 0xf4400
row hit channel 0 rank 0 bank 13 row 30 partid 1 0xf3580
row hit channel 0 rank 0 bank 7 row 30 partid 2 0xf1c40
row hit channel 0 rank 0 bank 17 row 30 partid 1 0xf4440
row miss channel 0 rank 0 bank 15 row 30 partid 1 0xf3fc0
row miss channel 0 rank 0 bank 22 row 30 partid 1 0xf5ac0
row miss channel 0 rank 0 bank 23 row 30 partid 1 0xf5f80
row hit channel 0 rank 0 bank 24 row 30 partid 1 0xf6180
row hit channel 0 rank 0 bank 5 row 28 partid 2 0xe1580
row hit channel 0 rank 0 bank 23 row 30 partid 1 0xf5fc0
row miss channel 0 rank 0 bank 30 row 30 partid 2 0xf7bc0
row miss channel 0 rank 0 bank 31 row 30 partid 2 0xf7c00
row miss channel 0 rank 0 bank 24 row 30 partid 1 0xf6280
row miss channel 0 rank 0 bank 25 row 30 partid 1 0xf66c0
row miss channel 0 rank 0 bank 4 row 16 partid 2 0x81000
row miss channel 0 rank 0 bank 2 row 31 partid 1 0xf8b40
row hit channel 0 rank 0 bank 25 row 30 partid 1 0xf67c0
row hit channel 0 rank 0 bank 2 row 31 partid 1 0xf8b80
row miss channel 0 rank 0 bank 11 row 18 partid 2 0x92c00
row hit channel 0 rank 0 bank 10 row 31 partid 1 0xfa900
row hit channel 0 rank 0 bank 11 row 18 partid 2 0x92c40
row miss channel 0 rank 0 bank 12 row 31 partid 1 0xfb080
row hit channel 0 rank 0 bank 1 row 26 partid 1 0xd05c0
row hit channel 0 rank 0 bank 12 row 31 partid 1 0xfb0c0
row miss channel 0 rank 0 bank 3 row 16 partid 2 0x80d40
row miss channel 0 rank 0 bank 15 row 31 partid 1 0xfbd80
row hit channel 0 rank 0 bank 25 row 29 partid 1 0xee4c0
row miss channel 0 rank 0 bank 29 row 25 partid 1 0xcf700
row miss channel 0 rank 0 bank 30 row 8 partid 1 0x47980
row miss channel 0 rank 0 bank 26 row 11 partid 1 0x5eb00
row miss channel 0 rank 0 bank 24 row 32 partid 1 0x106340
row miss channel 0 rank 0 bank 15 row 24 partid 1 0xc3c80
row miss channel 0 rank 0 bank 14 row 24 partid 1 0xc3980
row miss channel 0 rank 0 bank 2 row 33 partid 1 0x108b80
row miss channel 0 rank 0 bank 16 row 33 partid 1 0x10c240
row miss channel 0 rank 0 bank 15 row 33 partid 2 0x10bd40
row miss channel 0 rank 0 bank 21 row 31 partid 1 0xfd740
row miss channel 0 rank 0 bank 21 row 31 partid 1 0xfd780
row miss channel 0 rank 0 bank 7 row 28 partid 2 0xe1dc0
row miss channel 0 rank 0 bank 20 row 16 partid 2 0x85180
row miss channel 0 rank 0 bank 31 row 35 partid 2 0x11fd80
row miss channel 0 rank 0 bank 24 row 14 partid 2 0x762c0
row miss channel 0 rank 0 bank 6 row 34 partid 1 0x1118c0
row miss channel 0 rank 0 bank 29 row 15 partid 2 0x7f500
row miss channel 0 rank 0 bank 22 row 17 partid 2 0x8d980
row miss channel 0 rank 0 bank 1 row 37 partid 2 0x128600
row miss channel 0 rank 0 bank 9 row 9 partid 1 0x4a440
row miss channel 0 rank 0 bank 5 row 37 partid 2 0x1294c0
row hit channel 0 rank 0 bank 23 row 31 partid 1 0xfdc40
row hit channel 0 rank 0 bank 24 row 29 partid 1 0xee040
row hit channel 0 rank 0 bank 5 row 37 partid 2 0x129500
row miss channel 0 rank 0 bank 5 row 37 partid 2 0x129580
row miss channel 0 rank 0 bank 6 row 37 partid 2 0x129a40
row hit channel 0 rank 0 bank 0 row 38 partid 1 0x1300c0
row hit channel 0 rank 0 bank 2 row 37 partid 2 0x128980
row miss channel 0 rank 0 bank 2 row 37 partid 2 0x128ac0
row miss channel 0 rank 0 bank 18 row 37 partid 1 0x12c880
row miss channel 0 rank 0 bank 7 row 37 partid 2 0x129f40
row miss channel 0 rank 0 bank 28 row 38 partid 2 0x1370c0
row hit channel 0 rank 0 bank 3 row 37 partid 2 0x128d00
row hit channel 0 rank 0 bank 28 row 38 partid 2 0x137100
row hit channel 0 rank 0 bank 4 row 25 partid 1 0xc9380
row miss channel 0 rank 0 bank 3 row 37 partid 2 0x128d40
row miss channel 0 rank 0 bank 4 row 24 partid 1 0xc1000
row miss channel 0 rank 0 bank 16 row 27 partid 1 0xdc340
row miss channel 0 rank 0 bank 23 row 33 partid 1 0x10dc40
row miss channel 0 rank 0 bank 4 row 39 partid 2 0x139100
row miss channel 0 rank 0 bank 30 row 38 partid 2 0x137b00
row hit channel 0 rank 0 bank 30 row 38 partid 2 0x137b40
row miss channel 0 rank 0 bank 11 row 23 partid 1 0xbae00
row miss channel 0 rank 0 bank 17 row 27 partid 1 0xdc680
row miss channel 0 rank 0 bank 0 row 40 partid 1 0x140080
row miss channel 0 rank 0 bank 12 row 40 partid 1 0x143380
row miss channel 0 rank 0 bank 5 row 39 partid 2 0x139480
row miss channel 0 rank 0 bank 28 row 39 partid 2 0x13f180
row hit channel 0 rank 0 bank 28 row 39 partid 2 0x13f1c0
row miss channel 0 rank 0 bank 30 row 39 partid 2 0x13fa40
row hit channel 0 rank 0 bank 30 row 39 partid 2 0x13fa80
row miss channel 0 rank 0 bank 6 row 39 partid 2 0x139840
row miss channel 0 rank 0 bank 30 row 39 partid 2 0x13fac0
row miss channel 0 rank 0 bank 1 row 42 partid 1 0x150640
row miss channel 0 rank 0 bank 31 row 27 partid 1 0xdfec0
row miss channel 0 rank 0 bank 30 row 39 partid 2 0x13fb00
row hit channel 0 rank 0 bank 30 row 39 partid 2 0x13fb40
row miss channel 0 rank 0 bank 5 row 42 partid 1 0x151500
row miss channel 0 rank 0 bank 2 row 42 partid 1 0x1509c0
row miss channel 0 rank 0 bank 3 row 42 partid 1 0x150c00
row miss channel 0 rank 0 bank 6 row 42 partid 1 0x151980
row hit channel 0 rank 0 bank 31 row 39 partid 2 0x13fe80
row hit channel 0 rank 0 bank 6 row 42 partid 1 0x1519c0
row hit channel 0 rank 0 bank 31 row 39 partid 2 0x13fec0
row hit channel 0 rank 0 bank 31 row 39 partid 2 0x13ff00
row miss channel 0 rank 0 bank 31 row 39 partid 2 0x13ffc0
row miss channel 0 rank 0 bank 7 row 39 partid 2 0x139c00
row miss channel 0 rank 0 bank 12 row 42 partid 1 0x153300
row hit channel 0 rank 0 bank 8 row 42 partid 1 0x152200
row hit channel 0 rank 0 bank 12 row 42 partid 1 0x153340
row miss channel 0 rank 0 bank 14 row 42 partid 1 0x153840
row miss channel 0 rank 0 bank 8 row 42 partid 1 0x1523c0
row miss channel 0 rank 0 bank 11 row 42 partid 1 0x152c00
row miss channel 0 rank 0 bank 17 row 42 partid 2 0x154500
row miss channel 0 rank 0 bank 7 row 39 partid 2 0x139f00
row miss channel 0 rank 0 bank 18 row 42 partid 2 0x154880
row miss channel 0 rank 0 bank 18 row 42 partid 2 0x1549c0
row hit channel 0 rank 0 bank 24 row 42 partid 1 0x156300
row hit channel 0 rank 0 bank 7 row 39 partid 2 0x139f80
row miss channel 0 rank 0 bank 19 row 42 partid 2 0x154f00
row hit channel 0 rank 0 bank 29 row 42 partid 1 0x1577c0
row hit channel 0 rank 0 bank 0 row 43 partid 2 0x158140
row hit channel 0 rank 0 bank 19 row 42 partid 2 0x154f40
row hit channel 0 rank 0 bank 4 row 43 partid 1 0x159040
row hit channel 0 rank 0 bank 30 row 42 partid 1 0x157800
row hit channel 0 rank 0 bank 19 row 42 partid 2 0x154f80
row miss channel 0 rank 0 bank 13 row 43 partid 1 0x15b580
row hit channel 0 rank 0 bank 1 row 43 partid 2 0x158540
row hit channel 0 rank 0 bank 20 row 43 partid 1 0x15d3c0
row hit channel 0 rank 0 bank 13 row 43 partid 1 0x15b5c0
row hit channel 0 rank 0 bank 9 row 43 partid 2 0x15a480
row hit channel 0 rank 0 bank 9 row 43 partid 2 0x15a4c0
row hit channel 0 rank 0 bank 13 row 43 partid 1 0x15b600
row miss channel 0 rank 0 bank 9 row 43 partid 2 0x15a6c0
row miss channel 0 rank 0 bank 2 row 23 partid 1 0xb8a00
row miss channel 0 rank 0 bank 15 row 43 partid 1 0x15bc00
row hit channel 0 rank 0 bank 15 row 43 partid 1 0x15bc40
row hit channel 0 rank 0 bank 10 row 43 partid 2 0x15a9c0
row miss channel 0 rank 0 bank 10 row 42 partid 1 0x152980
row miss channel 0 rank 0 bank 11 row 43 partid 2 0x15af40
row hit channel 0 rank 0 bank 15 row 43 partid 1 0x15bf00
row hit channel 0 rank 0 bank 2 row 43 partid 2 0x158900
row miss channel 0 rank 0 bank 12 row 44 partid 2 0x163200
row miss channel 0 rank 0 bank 22 row 43 partid 1 0x15dac0
row miss channel 0 rank 0 bank 13 row 44 partid 2 0x163780
row hit channel 0 rank 0 bank 3 row 43 partid 2 0x158ec0
row hit channel 0 rank 0 bank 9 row 44 partid 1 0x1627c0
row miss channel 0 rank 0 bank 11 row 44 partid 1 0x162f00
row miss channel 0 rank 0 bank 29 row 30 partid 2 0xf7480
row miss channel 0 rank 0 bank 20 row 45 partid 2 0x16d200
row miss channel 0 rank 0 bank 24 row 45 partid 1 0x16e0c0
row miss channel 0 rank 0 bank 30 row 30 partid 2 0xf7800
row miss channel 0 rank 0 bank 21 row 45 partid 2 0x16d780
row hit channel 0 rank 0 bank 21 row 45 partid 2 0x16d7c0
row miss channel 0 rank 0 bank 29 row 36 partid 2 0x1276c0
row miss channel 0 rank 0 bank 20 row 42 partid 1 0x1553c0
row miss channel 0 rank 0 bank 20 row 15 partid 2 0x7d300
row miss channel 0 rank 0 bank 8 row 46 partid 1 0x1723c0
row miss channel 0 rank 0 bank 14 row 18 partid 2 0x93b00
row miss channel 0 rank 0 bank 28 row 15 partid 2 0x7f100
row miss channel 0 rank 0 bank 17 row 47 partid 2 0x17c400
row miss channel 0 rank 0 bank 27 row 15 partid 2 0x7edc0
row miss channel 0 rank 0 bank 29 row 15 partid 2 0x7f400
row miss channel 0 rank 0 bank 31 row 30 partid 2 0xf7ec0
row miss channel 0 rank 0 bank 13 row 33 partid 2 0x10b400
row hit channel 0 rank 0 bank 2 row 35 partid 1 0x118800
row miss channel 0 rank 0 bank 25 row 33 partid 1 0x10e600
row miss channel 0 rank 0 bank 0 row 35 partid 1 0x1183c0
row miss channel 0 rank 0 bank 21 row 49 partid 2 0x18d740
row miss channel 0 rank 0 bank 25 row 33 partid 1 0x10e6c0
row miss channel 0 rank 0 bank 20 row 35 partid 1 0x11d200
row miss channel 0 rank 0 bank 17 row 44 partid 1 0x164640
row miss channel 0 rank 0 bank 27 row 44 partid 1 0x166f00
row miss channel 0 rank 0 bank 8 row 49 partid 2 0x18a180
row miss channel 0 rank 0 bank 4 row 50 partid 1 0x1910c0
row miss channel 0 rank 0 bank 16 row 50 partid 1 0x194140
row miss channel 0 rank 0 bank 20 row 35 partid 1 0x11d380
row miss channel 0 rank 0 bank 16 row 50 partid 1 0x194380
row miss channel 0 rank 0 bank 12 row 33 partid 2 0x10b3c0
row miss channel 0 rank 0 bank 11 row 42 partid 1 0x152d00
row miss channel 0 rank 0 bank 5 row 50 partid 1 0x191440
row miss channel 0 rank 0 bank 22 row 35 partid 1 0x11d880
row miss channel 0 rank 0 bank 6 row 50 partid 1 0x1919c0
row miss channel 0 rank 0 bank 9 row 14 partid 2 0x72780
row miss channel 0 rank 0 bank 28 row 48 partid 2 0x1872c0
row miss channel 0 rank 0 bank 27 row 49 partid 2 0x18ef80
row miss channel 0 rank 0 bank 17 row 47 partid 2 0x17c700
row miss channel 0 rank 0 bank 0 row 51 partid 2 0x1981c0
row miss channel 0 rank 0 bank 30 row 49 partid 1 0x18fa40
row miss channel 0 rank 0 bank 5 row 31 partid 2 0xf9700
row miss channel 0 rank 0 bank 27 row 46 partid 1 0x176e00
row miss channel 0 rank 0 bank 6 row 31 partid 2 0xf9b80
row miss channel 0 rank 0 bank 31 row 15 partid 2 0x7fd40
row miss channel 0 rank 0 bank 24 row 48 partid 1 0x1863c0
row miss channel 0 rank 0 bank 16 row 51 partid 2 0x19c100
row miss channel 0 rank 0 bank 29 row 33 partid 1 0x10f680
row miss channel 0 rank 0 bank 25 row 27 partid 1 0xde6c0
row miss channel 0 rank 0 bank 5 row 48 partid 2 0x1814c0
row miss channel 0 rank 0 bank 7 row 31 partid 2 0xf9c40
row miss channel 0 rank 0 bank 1 row 46 partid 1 0x170400
row miss channel 0 rank 0 bank 24 row 51 partid 1 0x19e080
row miss channel 0 rank 0 bank 6 row 48 partid 2 0x1819c0
row miss channel 0 rank 0 bank 7 row 48 partid 2 0x181c40
row miss channel 0 rank 0 bank 3 row 35 partid 1 0x118cc0
row miss channel 0 rank 0 bank 1 row 52 partid 2 0x1a0500
row miss channel 0 rank 0 bank 29 row 43 partid 1 0x15f580
row miss channel 0 rank 0 bank 26 row 51 partid 1 0x19ea40
row miss channel 0 rank 0 bank 10 row 51 partid 1 0x19aac0
row miss channel 0 rank 0 bank 1 row 52 partid 2 0x1a0700
row miss channel 0 rank 0 bank 26 row 51 partid 1 0x19eb40
row miss channel 0 rank 0 bank 7 row 31 partid 2 0xf9d00
row miss channel 0 rank 0 bank 0 row 44 partid 1 0x160380
row miss channel 0 rank 0 bank 13 row 33 partid 2 0x10b480
row miss channel 0 rank 0 bank 21 row 35 partid 1 0x11d700
row miss channel 0 rank 0 bank 11 row 51 partid 1 0x19ae00
row miss channel 0 rank 0 bank 4 row 23 partid 1 0xb93c0
row miss channel 0 rank 0 bank 22 row 51 partid 2 0x19d900
row miss channel 0 rank 0 bank 2 row 29 partid 2 0xe8b00
row miss channel 0 rank 0 bank 30 row 8 partid 1 0x47b80
row miss channel 0 rank 0 bank 31 row 8 partid 1 0x47c00
row miss channel 0 rank 0 bank 29 row 34 partid 1 0x117600
row miss channel 0 rank 0 bank 11 row 52 partid 1 0x1a2fc0
row miss channel 0 rank 0 bank 13 row 52 partid 1 0x1a3540
row miss channel 0 rank 0 bank 18 row 47 partid 2 0x17cbc0
row miss channel 0 rank 0 bank 21 row 29 partid 1 0xed7c0
row hit channel 0 rank 0 bank 21 row 29 partid 1 0xed680
row miss channel 0 rank 0 bank 28 row 48 partid 2 0x187280
row miss channel 0 rank 0 bank 13 row 52 partid 1 0x1a3780
row miss channel 0 rank 0 bank 31 row 43 partid 1 0x15fc40
row miss channel 0 rank 0 bank 19 row 47 partid 2 0x17cc40
row hit channel 0 rank 0 bank 28 row 36 partid 2 0x127040
row miss channel 0 rank 0 bank 28 row 45 partid 1 0x16f1c0
row miss channel 0 rank 0 bank 22 row 29 partid 1 0xedb00
row miss channel 0 rank 0 bank 21 row 29 partid 1 0xed700
row miss channel 0 rank 0 bank 6 row 17 partid 2 0x89ac0
row miss channel 0 rank 0 bank 2 row 53 partid 2 0x1a8800
row miss channel 0 rank 0 bank 30 row 43 partid 1 0x15f800
row miss channel 0 rank 0 bank 16 row 52 partid 1 0x1a4040
row miss channel 0 rank 0 bank 31 row 43 partid 1 0x15fe00
row miss channel 0 rank 0 bank 19 row 44 partid 1 0x164d80
row miss channel 0 rank 0 bank 9 row 45 partid 1 0x16a5c0
row miss channel 0 rank 0 bank 15 row 52 partid 1 0x1a3e00
row miss channel 0 rank 0 bank 13 row 54 partid 2 0x1b3700
row miss channel 0 rank 0 bank 4 row 55 partid 1 0x1b9040
row miss channel 0 rank 0 bank 28 row 43 partid 1 0x15f140
row miss channel 0 rank 0 bank 27 row 27 partid 1 0xdec40
row miss channel 0 rank 0 bank 9 row 50 partid 1 0x192480
row miss channel 0 rank 0 bank 5 row 33 partid 2 0x109480
row hit channel 0 rank 0 bank 5 row 33 partid 2 0x1094c0
row hit channel 0 rank 0 bank 5 row 33 partid 2 0x109500
row miss channel 0 rank 0 bank 5 row 33 partid 2 0x109700
row miss channel 0 rank 0 bank 5 row 33 partid 2 0x1097c0
row miss channel 0 rank 0 bank 5 row 55 partid 1 0x1b9440
row miss channel 0 rank 0 bank 24 row 56 partid 2 0x1c6280
row miss channel 0 rank 0 bank 0 row 16 partid 2 0x80000
row miss channel 0 rank 0 bank 23 row 42 partid 1 0x155ec0
row miss channel 0 rank 0 bank 4 row 57 partid 1 0x1c9040
row miss channel 0 rank 0 bank 23 row 42 partid 1 0x155d00
row miss channel 0 rank 0 bank 23 row 52 partid 2 0x1a5f00
row miss channel 0 rank 0 bank 16 row 44 partid 1 0x164140
row miss channel 0 rank 0 bank 6 row 57 partid 1 0x1c9900
row miss channel 0 rank 0 bank 17 row 57 partid 1 0x1cc580
row miss channel 0 rank 0 bank 7 row 57 partid 1 0x1c9c40
row miss channel 0 rank 0 bank 9 row 16 partid 2 0x827c0
row miss channel 0 rank 0 bank 26 row 52 partid 2 0x1a6ac0
row miss channel 0 rank 0 bank 0 row 58 partid 2 0x1d0080
row miss channel 0 rank 0 bank 12 row 58 partid 2 0x1d3040
row miss channel 0 rank 0 bank 27 row 19 partid 2 0x9ee00
row miss channel 0 rank 0 bank 6 row 22 partid 1 0xb1a00
row miss channel 0 rank 0 bank 29 row 57 partid 2 0x1cf740
row miss channel 0 rank 0 bank 21 row 58 partid 2 0x1d54c0
row miss channel 0 rank 0 bank 14 row 23 partid 1 0xbbb00
row miss channel 0 rank 0 bank 15 row 45 partid 1 0x16bc40
row miss channel 0 rank 0 bank 14 row 13 partid 2 0x6b940
row hit channel 0 rank 0 bank 0 row 59 partid 2 0x1d8100
row miss channel 0 rank 0 bank 24 row 52 partid 2 0x1a6080
row miss channel 0 rank 0 bank 11 row 58 partid 2 0x1d2dc0
row miss channel 0 rank 0 bank 25 row 42 partid 1 0x156680
row miss channel 0 rank 0 bank 0 row 60 partid 2 0x1e02c0
row miss channel 0 rank 0 bank 12 row 60 partid 2 0x1e3240
row miss channel 0 rank 0 bank 18 row 60 partid 2 0x1e49c0
row miss channel 0 rank 0 bank 26 row 58 partid 1 0x1d6840
row miss channel 0 rank 0 bank 0 row 51 partid 2 0x198340
row miss channel 0 rank 0 bank 16 row 46 partid 1 0x174200
row miss channel 0 rank 0 bank 22 row 60 partid 1 0x1e5ac0
row miss channel 0 rank 0 bank 10 row 49 partid 2 0x18aac0
row miss channel 0 rank 0 bank 28 row 50 partid 2 0x197100
row hit channel 0 rank 0 bank 28 row 50 partid 2 0x197140
row miss channel 0 rank 0 bank 27 row 58 partid 1 0x1d6cc0
row miss channel 0 rank 0 bank 1 row 61 partid 1 0x1e8740
row miss channel 0 rank 0 bank 2 row 61 partid 1 0x1e8940
row miss channel 0 rank 0 bank 10 row 61 partid 1 0x1eab00
row miss channel 0 rank 0 bank 11 row 50 partid 1 0x192c40
row miss channel 0 rank 0 bank 14 row 46 partid 1 0x173b40
row miss channel 0 rank 0 bank 30 row 47 partid 2 0x17fac0
row miss channel 0 rank 0 bank 31 row 47 partid 2 0x17fe40
row miss channel 0 rank 0 bank 16 row 48 partid 2 0x184300
row miss channel 0 rank 0 bank 7 row 61 partid 1 0x1e9e80
row miss channel 0 rank 0 bank 21 row 52 partid 2 0x1a5480
row miss channel 0 rank 0 bank 21 row 52 partid 2 0x1a57c0
row miss channel 0 rank 0 bank 16 row 61 partid 1 0x1ec300
row miss channel 0 rank 0 bank 23 row 52 partid 2 0x1a5e40
row miss channel 0 rank 0 bank 17 row 61 partid 1 0x1ec440
row miss channel 0 rank 0 bank 17 row 61 partid 1 0x1ec5c0
row miss channel 0 rank 0 bank 18 row 61 partid 1 0x1ec880
row miss channel 0 rank 0 bank 19 row 61 partid 1 0x1ecc80
row miss channel 0 rank 0 bank 18 row 48 partid 2 0x184900
row miss channel 0 rank 0 bank 25 row 61 partid 2 0x1ee680
row miss channel 0 rank 0 bank 26 row 61 partid 2 0x1ee9c0
row hit channel 0 rank 0 bank 19 row 61 partid 1 0x1ece00
row miss channel 0 rank 0 bank 27 row 61 partid 2 0x1eec80
row miss channel 0 rank 0 bank 28 row 61 partid 1 0x1ef080
row miss channel 0 rank 0 bank 12 row 51 partid 2 0x19b040
row miss channel 0 rank 0 bank 28 row 61 partid 1 0x1ef1c0
row miss channel 0 rank 0 bank 12 row 51 partid 2 0x19b340
row miss channel 0 rank 0 bank 13 row 50 partid 2 0x1935c0
row hit channel 0 rank 0 bank 19 row 48 partid 2 0x184e40
row hit channel 0 rank 0 bank 9 row 48 partid 1 0x182700
row miss channel 0 rank 0 bank 31 row 61 partid 1 0x1efc00
row miss channel 0 rank 0 bank 29 row 43 partid 1 0x15f4c0
row miss channel 0 rank 0 bank 15 row 50 partid 2 0x193c00
row miss channel 0 rank 0 bank 31 row 61 partid 1 0x1efd40
row miss channel 0 rank 0 bank 0 row 49 partid 2 0x188340
row hit channel 0 rank 0 bank 28 row 48 partid 2 0x187080
row hit channel 0 rank 0 bank 31 row 61 partid 1 0x1efec0
row miss channel 0 rank 0 bank 8 row 47 partid 1 0x17a280
row miss channel 0 rank 0 bank 3 row 49 partid 2 0x188e40
row miss channel 0 rank 0 bank 12 row 49 partid 2 0x18b200
row miss channel 0 rank 0 bank 1 row 62 partid 1 0x1f0400
row miss channel 0 rank 0 bank 16 row 43 partid 1 0x15c080
row miss channel 0 rank 0 bank 1 row 62 partid 1 0x1f0740
row miss channel 0 rank 0 bank 23 row 43 partid 1 0x15dd00
row miss channel 0 rank 0 bank 22 row 35 partid 1 0x11db80
row miss channel 0 rank 0 bank 15 row 49 partid 2 0x18bd40
row miss channel 0 rank 0 bank 13 row 62 partid 1 0x1f3780
row miss channel 0 rank 0 bank 5 row 51 partid 2 0x199740
row miss channel 0 rank 0 bank 6 row 51 partid 2 0x199ac0
row hit channel 0 rank 0 bank 1 row 45 partid 1 0x168600
row miss channel 0 rank 0 bank 3 row 62 partid 1 0x1f0c40
row miss channel 0 rank 0 bank 7 row 51 partid 2 0x199e40
row miss channel 0 rank 0 bank 20 row 43 partid 1 0x15d0c0
row miss channel 0 rank 0 bank 3 row 62 partid 1 0x1f0d80
row miss channel 0 rank 0 bank 16 row 51 partid 2 0x19c140
row miss channel 0 rank 0 bank 13 row 47 partid 1 0x17b680
row miss channel 0 rank 0 bank 18 row 51 partid 2 0x19c800
row miss channel 0 rank 0 bank 6 row 22 partid 1 0xb1ac0
row miss channel 0 rank 0 bank 18 row 51 partid 2 0x19cbc0
row miss channel 0 rank 0 bank 20 row 62 partid 1 0x1f5140
row miss channel 0 rank 0 bank 14 row 62 partid 1 0x1f3940
row miss channel 0 rank 0 bank 20 row 49 partid 2 0x18d280
row miss channel 0 rank 0 bank 23 row 48 partid 1 0xMAIN_printInfo:
	grid size      : 100 x 100 x 130 = 1.30 * 10^6 Cells
	nTimeSteps     : 3000
	result file    : /home/llj/dockerspec/benchspec/CPU/519.lbm_r/run/run_base_refrate_mytest-m64.0000/eference.dat
	action         : nothing
	simulation type: lid-driven cavity
	obstacle file  : /home/llj/dockerspec/benchspec/CPU/519.lbm_r/run/run_base_refrate_mytest-m64.0000/100_100_130_ldc.of

185fc0
row miss channel 0 rank 0 bank 21 row 49 partid 2 0x18d600
row miss channel 0 rank 0 bank 20 row 62 partid 1 0x1f53c0
row miss channel 0 rank 0 bank 3 row 48 partid 1 0x180d00
row miss channel 0 rank 0 bank 23 row 49 partid 2 0x18dd40
row miss channel 0 rank 0 bank 4 row 49 partid 2 0x1890c0
row miss channel 0 rank 0 bank 13 row 57 partid 1 0x1cb7c0
row miss channel 0 rank 0 bank 4 row 49 partid 2 0x189340
row miss channel 0 rank 0 bank 31 row 48 partid 2 0x187e40
row miss channel 0 rank 0 bank 5 row 49 partid 2 0x189600
row hit channel 0 rank 0 bank 28 row 46 partid 1 0x177080
row miss channel 0 rank 0 bank 31 row 36 partid 2 0x127d00
row miss channel 0 rank 0 bank 4 row 30 partid 2 0xf10c0
row miss channel 0 rank 0 bank 22 row 62 partid 1 0x1f5b00
row miss channel 0 rank 0 bank 22 row 63 partid 2 0x1fd940
row miss channel 0 rank 0 bank 13 row 57 partid 1 0x1cb740
row miss channel 0 rank 0 bank 8 row 64 partid 2 0x2020c0
row miss channel 0 rank 0 bank 23 row 64 partid 1 0x205f40
row miss channel 0 rank 0 bank 5 row 60 partid 2 0x1e1400
row miss channel 0 rank 0 bank 26 row 64 partid 1 0x206bc0
row miss channel 0 rank 0 bank 21 row 59 partid 2 0x1dd680
row miss channel 0 rank 0 bank 26 row 59 partid 2 0x1debc0
row miss channel 0 rank 0 bank 22 row 59 partid 2 0x1dd940
row miss channel 0 rank 0 bank 17 row 64 partid 1 0x2045c0
row miss channel 0 rank 0 bank 23 row 59 partid 2 0x1dde00
row miss channel 0 rank 0 bank 10 row 65 partid 2 0x20a880
row miss channel 0 rank 0 bank 10 row 66 partid 2 0x212a00
row miss channel 0 rank 0 bank 13 row 65 partid 1 0x20b600
row miss channel 0 rank 0 bank 2 row 66 partid 2 0x210800
row miss channel 0 rank 0 bank 18 row 64 partid 1 0x204b40
row miss channel 0 rank 0 bank 3 row 66 partid 2 0x210e40
row miss channel 0 rank 0 bank 22 row 66 partid 2 0x215800
row miss channel 0 rank 0 bank 28 row 65 partid 2 0x20f200
row miss channel 0 rank 0 bank 28 row 66 partid 1 0x217000
row miss channel 0 rank 0 bank 31 row 45 partid 1 0x16fec0
row miss channel 0 rank 0 bank 28 row 13 partid 2 0x6f100
row miss channel 0 rank 0 bank 13 row 67 partid 2 0x21b6c0
row miss channel 0 rank 0 bank 8 row 67 partid 1 0x21a200
row miss channel 0 rank 0 bank 15 row 13 partid 2 0x6bcc0
row miss channel 0 rank 0 bank 25 row 44 partid 1 0x166780
row miss channel 0 rank 0 bank 13 row 48 partid 1 0x183740
row miss channel 0 rank 0 bank 18 row 67 partid 2 0x21cb80
row miss channel 0 rank 0 bank 19 row 67 partid 2 0x21cf40
row miss channel 0 rank 0 bank 10 row 67 partid 1 0x21aa00
row miss channel 0 rank 0 bank 10 row 68 partid 2 0x222a80
row miss channel 0 rank 0 bank 11 row 68 partid 2 0x222e40
row miss channel 0 rank 0 bank 20 row 68 partid 2 0x225200
row miss channel 0 rank 0 bank 21 row 68 partid 2 0x2255c0
row miss channel 0 rank 0 bank 23 row 68 partid 2 0x225d40
row miss channel 0 rank 0 bank 4 row 69 partid 2 0x229100
row miss channel 0 rank 0 bank 5 row 69 partid 2 0x2294c0
row miss channel 0 rank 0 bank 6 row 69 partid 2 0x229880
row miss channel 0 rank 0 bank 7 row 69 partid 2 0x229c40
row miss channel 0 rank 0 bank 16 row 69 partid 2 0x22c000
row miss channel 0 rank 0 bank 17 row 69 partid 2 0x22c780
row miss channel 0 rank 0 bank 18 row 69 partid 2 0x22cb40
row miss channel 0 rank 0 bank 1 row 70 partid 1 0x230680
row miss channel 0 rank 0 bank 28 row 69 partid 2 0x22f2c0
row miss channel 0 rank 0 bank 30 row 69 partid 2 0x22fa40
row miss channel 0 rank 0 bank 31 row 43 partid 1 0x15ffc0
row miss channel 0 rank 0 bank 24 row 70 partid 2 0x2361c0
row miss channel 0 rank 0 bank 25 row 70 partid 2 0x236580
row miss channel 0 rank 0 bank 26 row 70 partid 2 0x236940
row miss channel 0 rank 0 bank 27 row 70 partid 2 0x236d00
row miss channel 0 rank 0 bank 28 row 70 partid 2 0x2370c0
row miss channel 0 rank 0 bank 28 row 70 partid 2 0x237380
row miss channel 0 rank 0 bank 7 row 70 partid 1 0x231d40
row miss channel 0 rank 0 bank 30 row 70 partid 2 0x237840
row miss channel 0 rank 0 bank 31 row 70 partid 2 0x237c00
row miss channel 0 rank 0 bank 31 row 70 partid 2 0x237fc0
row miss channel 0 rank 0 bank 8 row 71 partid 1 0x23a300
row hit channel 0 rank 0 bank 4 row 71 partid 2 0x239380
row hit channel 0 rank 0 bank 22 row 29 partid 1 0xed800
row miss channel 0 rank 0 bank 5 row 71 partid 2 0x239740
row miss channel 0 rank 0 bank 6 row 71 partid 2 0x239b00
row miss channel 0 rank 0 bank 9 row 26 partid 1 0xd2640
row miss channel 0 rank 0 bank 7 row 71 partid 2 0x239ec0
row miss channel 0 rank 0 bank 12 row 71 partid 2 0x23b280
row miss channel 0 rank 0 bank 10 row 71 partid 1 0x23a880
row miss channel 0 rank 0 bank 21 row 64 partid 1 0x205440
row miss channel 0 rank 0 bank 3 row 44 partid 1 0x160dc0
row miss channel 0 rank 0 bank 15 row 71 partid 2 0x23bdc0
row miss channel 0 rank 0 bank 16 row 71 partid 2 0x23c180
row miss channel 0 rank 0 bank 17 row 71 partid 2 0x23c540
row miss channel 0 rank 0 bank 19 row 71 partid 2 0x23ccc0
row miss channel 0 rank 0 bank 28 row 71 partid 1 0x23f200
row miss channel 0 rank 0 bank 29 row 41 partid 1 0x14f400
row miss channel 0 rank 0 bank 31 row 71 partid 1 0x23fe00
row miss channel 0 rank 0 bank 4 row 72 partid 2 0x241080
row miss channel 0 rank 0 bank 2 row 72 partid 1 0x240980
row miss channel 0 rank 0 bank 9 row 72 partid 1 0x242500
row hit channel 0 rank 0 bank 30 row 41 partid 1 0x14fbc0
row miss channel 0 rank 0 bank 5 row 72 partid 2 0x241440
row miss channel 0 rank 0 bank 12 row 72 partid 1 0x243100
row hit channel 0 rank 0 bank 31 row 41 partid 1 0x14ffc0
row miss channel 0 rank 0 bank 0 row 23 partid 1 0xb83c0
row miss channel 0 rank 0 bank 15 row 72 partid 1 0x243d40
row miss channel 0 rank 0 bank 1 row 23 partid 1 0xb8780
row miss channel 0 rank 0 bank 18 row 72 partid 1 0x244880
row hit channel 0 rank 0 bank 6 row 72 partid 2 0x241800
row miss channel 0 rank 0 bank 2 row 22 partid 1 0xb0b80
row miss channel 0 rank 0 bank 28 row 21 partid 1 0xaf280
row miss channel 0 rank 0 bank 21 row 7 partid 1 0x3d500
row hit channel 0 rank 0 bank 6 row 72 partid 2 0x241bc0
row miss channel 0 rank 0 bank 25 row 72 partid 1 0x246640
row hit channel 0 rank 0 bank 7 row 72 partid 2 0x241f80
row miss channel 0 rank 0 bank 13 row 21 partid 1 0xab7c0
row miss channel 0 rank 0 bank 10 row 28 partid 1 0xe2ac0
row hit channel 0 rank 0 bank 14 row 21 partid 1 0xab980
row hit channel 0 rank 0 bank 10 row 28 partid 1 0xe2b00
row miss channel 0 rank 0 bank 10 row 34 partid 1 0x112a80
row miss channel 0 rank 0 bank 6 row 34 partid 1 0x111ac0
row miss channel 0 rank 0 bank 31 row 72 partid 2 0x247e80
row miss channel 0 rank 0 bank 16 row 73 partid 2 0x24c240
row miss channel 0 rank 0 bank 17 row 73 partid 2 0x24c600
row miss channel 0 rank 0 bank 18 row 73 partid 2 0x24c9c0
row miss channel 0 rank 0 bank 9 row 34 partid 1 0x112700
row miss channel 0 rank 0 bank 24 row 73 partid 2 0x24e140
row miss channel 0 rank 0 bank 6 row 73 partid 1 0x249900
row miss channel 0 rank 0 bank 10 row 0 partid 1 0x2980
row hit channel 0 rank 0 bank 9 row 7 partid 1 0x3a440
row hit channel 0 rank 0 bank 10 row 0 partid 1 0x29c0
row hit channel 0 rank 0 bank 25 row 73 partid 2 0x24e500
row miss channel 0 rank 0 bank 26 row 73 partid 2 0x24e8c0
row miss channel 0 rank 0 bank 11 row 7 partid 1 0x3af40
row miss channel 0 rank 0 bank 27 row 73 partid 2 0x24ec80
row miss channel 0 rank 0 bank 0 row 74 partid 2 0x250040
row miss channel 0 rank 0 bank 1 row 74 partid 2 0x250400
row miss channel 0 rank 0 bank 0 row 28 partid 1 0xe0280
row miss channel 0 rank 0 bank 2 row 74 partid 2 0x250b80
row miss channel 0 rank 0 bank 3 row 74 partid 2 0x250f40
row miss channel 0 rank 0 bank 4 row 74 partid 2 0x251300
row miss channel 0 rank 0 bank 1 row 34 partid 1 0x1106c0
row miss channel 0 rank 0 bank 5 row 74 partid 2 0x2516c0
row miss channel 0 rank 0 bank 6 row 74 partid 2 0x251a80
row miss channel 0 rank 0 bank 18 row 36 partid 1 0x124800
row miss channel 0 rank 0 bank 7 row 74 partid 2 0x251e40
row miss channel 0 rank 0 bank 8 row 74 partid 2 0x252200
row miss channel 0 rank 0 bank 14 row 0 partid 1 0x3980
row miss channel 0 rank 0 bank 9 row 74 partid 2 0x2525c0
row miss channel 0 rank 0 bank 5 row 35 partid 1 0x119680
row miss channel 0 rank 0 bank 11 row 74 partid 2 0x252d40
row miss channel 0 rank 0 bank 16 row 74 partid 2 0x254100
row miss channel 0 rank 0 bank 17 row 74 partid 2 0x2544c0
row miss channel 0 rank 0 bank 13 row 21 partid 1 0xab780
row miss channel 0 rank 0 bank 19 row 74 partid 2 0x254c40
row miss channel 0 rank 0 bank 6 row 13 partid 1 0x69b80
row miss channel 0 rank 0 bank 4 row 75 partid 2 0x259000
row miss channel 0 rank 0 bank 18 row 10 partid 1 0x54880
row miss channel 0 rank 0 bank 4 row 75 partid 2 0x2593c0
row miss channel 0 rank 0 bank 5 row 75 partid 2 0x259780
row miss channel 0 rank 0 bank 6 row 75 partid 2 0x259b40
row miss channel 0 rank 0 bank 30 row 77 partid 1 0x26fb00
row miss channel 0 rank 0 bank 7 row 75 partid 2 0x259f00
row miss channel 0 rank 0 bank 22 row 78 partid 1 0x275ac0
row miss channel 0 rank 0 bank 30 row 77 partid 1 0x26fa40
row miss channel 0 rank 0 bank 8 row 79 partid 2 0x27a0c0
row miss channel 0 rank 0 bank 9 row 78 partid 1 0x272480
row miss channel 0 rank 0 bank 12 row 81 partid 1 0x28b300
row miss channel 0 rank 0 bank 15 row 79 partid 2 0x27bec0
row miss channel 0 rank 0 bank 8 row 82 partid 2 0x292280
row miss channel 0 rank 0 bank 9 row 82 partid 2 0x292640
row miss channel 0 rank 0 bank 29 row 83 partid 1 0x29f7c0
row miss channel 0 rank 0 bank 11 row 82 partid 2 0x292dc0
row miss channel 0 rank 0 bank 28 row 84 partid 1 0x2a70c0
row miss channel 0 rank 0 bank 4 row 85 partid 2 0x2a9180
row miss channel 0 rank 0 bank 5 row 85 partid 2 0x2a9540
row miss channel 0 rank 0 bank 11 row 85 partid 1 0x2aae80
row miss channel 0 rank 0 bank 14 row 85 partid 1 0x2aba80
row miss channel 0 rank 0 bank 17 row 85 partid 1 0x2ac680
row miss channel 0 rank 0 bank 24 row 85 partid 1 0x2ae280
row miss channel 0 rank 0 bank 27 row 85 partid 1 0x2aee80
row miss channel 0 rank 0 bank 30 row 85 partid 1 0x2afa80
row miss channel 0 rank 0 bank 1 row 86 partid 1 0x2b0680
row miss channel 0 rank 0 bank 8 row 86 partid 1 0x2b2280
row miss channel 0 rank 0 bank 11 row 86 partid 1 0x2b2e80
row miss channel 0 rank 0 bank 26 row 84 partid 1 0x2a6a40
row miss channel 0 rank 0 bank 13 row 86 partid 1 0x2b3640
row miss channel 0 rank 0 bank 20 row 86 partid 1 0x2b5240
row miss channel 0 rank 0 bank 23 row 86 partid 1 0x2b5e40
row miss channel 0 rank 0 bank 26 row 86 partid 1 0x2b6a40
row miss channel 0 rank 0 bank 29 row 86 partid 1 0x2b7640
row miss channel 0 rank 0 bank 4 row 87 partid 1 0x2b9240
row miss channel 0 rank 0 bank 7 row 87 partid 1 0x2b9e40
row miss channel 0 rank 0 bank 10 row 87 partid 1 0x2baa40
row miss channel 0 rank 0 bank 13 row 87 partid 1 0x2bb640
row miss channel 0 rank 0 bank 16 row 87 partid 1 0x2bc240
row miss channel 0 rank 0 bank 19 row 87 partid 1 0x2bce40
row miss channel 0 rank 0 bank 26 row 87 partid 1 0x2bea40
row miss channel 0 rank 0 bank 29 row 87 partid 1 0x2bf640
row miss channel 0 rank 0 bank 23 row 87 partid 2 0x2bdf40
row miss channel 0 rank 0 bank 3 row 88 partid 1 0x2c0e40
row miss channel 0 rank 0 bank 10 row 88 partid 1 0x2c2a40
row miss channel 0 rank 0 bank 13 row 88 partid 1 0x2c3640
row miss channel 0 rank 0 bank 7 row 88 partid 2 0x2c1e40
row miss channel 0 rank 0 bank 19 row 88 partid 1 0x2c4e40
row miss channel 0 rank 0 bank 26 row 88 partid 1 0x2c6a40
row miss channel 0 rank 0 bank 29 row 88 partid 1 0x2c7640
row miss channel 0 rank 0 bank 23 row 88 partid 2 0x2c5d40
row miss channel 0 rank 0 bank 3 row 89 partid 1 0x2c8e40
row miss channel 0 rank 0 bank 10 row 89 partid 1 0x2caa40
row miss channel 0 rank 0 bank 13 row 89 partid 1 0x2cb640
row miss channel 0 rank 0 bank 7 row 89 partid 2 0x2c9c40
row miss channel 0 rank 0 bank 19 row 89 partid 1 0x2cce40
row miss channel 0 rank 0 bank 26 row 89 partid 1 0x2cea40
row miss channel 0 rank 0 bank 29 row 89 partid 1 0x2cf640
row miss channel 0 rank 0 bank 22 row 89 partid 2 0x2cdb40
row miss channel 0 rank 0 bank 3 row 90 partid 1 0x2d0e40
row miss channel 0 rank 0 bank 6 row 90 partid 1 0x2d1a40
row miss channel 0 rank 0 bank 13 row 90 partid 1 0x2d3640
row miss channel 0 rank 0 bank 10 row 90 partid 2 0x2d2a40
row miss channel 0 rank 0 bank 19 row 90 partid 1 0x2d4e40
row miss channel 0 rank 0 bank 22 row 90 partid 1 0x2d5a40
row miss channel 0 rank 0 bank 29 row 90 partid 1 0x2d7640
row miss channel 0 rank 0 bank 26 row 90 partid 2 0x2d6940
row miss channel 0 rank 0 bank 3 row 91 partid 1 0x2d8e40
row miss channel 0 rank 0 bank 6 row 91 partid 1 0x2d9a40
row miss channel 0 rank 0 bank 13 row 91 partid 1 0x2db640
row miss channel 0 rank 0 bank 10 row 91 partid 2 0x2da840
row miss channel 0 rank 0 bank 19 row 91 partid 1 0x2dce40
row miss channel 0 rank 0 bank 22 row 91 partid 1 0x2dda40
row miss channel 0 rank 0 bank 29 row 91 partid 1 0x2df640
row miss channel 0 rank 0 bank 25 row 91 partid 2 0x2de740
row miss channel 0 rank 0 bank 3 row 92 partid 1 0x2e0e40
row miss channel 0 rank 0 bank 6 row 92 partid 1 0x2e1a40
row miss channel 0 rank 0 bank 13 row 92 partid 1 0x2e3640
row miss channel 0 rank 0 bank 9 row 92 partid 2 0x2e2640
row miss channel 0 rank 0 bank 19 row 92 partid 1 0x2e4e40
row miss channel 0 rank 0 bank 22 row 92 partid 1 0x2e5a40
row miss channel 0 rank 0 bank 25 row 92 partid 1 0x2e6640
row miss channel 0 rank 0 bank 29 row 92 partid 2 0x2e7540
row miss channel 0 rank 0 bank 3 row 93 partid 1 0x2e8e40
row miss channel 0 rank 0 bank 6 row 93 partid 1 0x2e9a40
row miss channel 0 rank 0 bank 9 row 93 partid 1 0x2ea640
row miss channel 0 rank 0 bank 13 row 93 partid 2 0x2eb440
row miss channel 0 rank 0 bank 19 row 93 partid 1 0x2ece40
row miss channel 0 rank 0 bank 22 row 93 partid 1 0x2eda40
row miss channel 0 rank 0 bank 25 row 93 partid 1 0x2ee640
row miss channel 0 rank 0 bank 0 row 94 partid 1 0x2f0240
row miss channel 0 rank 0 bank 3 row 94 partid 1 0x2f0e40
row miss channel 0 rank 0 bank 6 row 94 partid 1 0x2f1a40
row miss channel 0 rank 0 bank 9 row 94 partid 1 0x2f2640
row miss channel 0 rank 0 bank 16 row 94 partid 1 0x2f4240
row miss channel 0 rank 0 bank 19 row 94 partid 1 0x2f4e40
row miss channel 0 rank 0 bank 22 row 94 partid 1 0x2f5a40
row miss channel 0 rank 0 bank 25 row 94 partid 1 0x2f6640
row miss channel 0 rank 0 bank 0 row 95 partid 1 0x2f8240
row miss channel 0 rank 0 bank 3 row 95 partid 1 0x2f8e40
row miss channel 0 rank 0 bank 6 row 95 partid 1 0x2f9a40
row miss channel 0 rank 0 bank 9 row 95 partid 1 0x2fa640
row miss channel 0 rank 0 bank 12 row 95 partid 1 0x2fb240
row miss channel 0 rank 0 bank 15 row 95 partid 1 0x2fbe40
row miss channel 0 rank 0 bank 22 row 95 partid 1 0x2fda40
row miss channel 0 rank 0 bank 25 row 95 partid 1 0x2fe640
row miss channel 0 rank 0 bank 19 row 95 partid 2 0x2fcf40
row miss channel 0 rank 0 bank 31 row 95 partid 1 0x2ffe40
row miss channel 0 rank 0 bank 6 row 96 partid 1 0x301a40
row miss channel 0 rank 0 bank 9 row 96 partid 1 0x302640
row miss channel 0 rank 0 bank 3 row 96 partid 2 0x300e40
row miss channel 0 rank 0 bank 15 row 96 partid 1 0x303e40
row miss channel 0 rank 0 bank 22 row 96 partid 1 0x305a40
row miss channel 0 rank 0 bank 25 row 96 partid 1 0x306640
row miss channel 0 rank 0 bank 19 row 96 partid 2 0x304d40
row miss channel 0 rank 0 bank 31 row 96 partid 1 0x307e40
row miss channel 0 rank 0 bank 6 row 97 partid 1 0x309a40
row miss channel 0 rank 0 bank 9 row 97 partid 1 0x30a640
row miss channel 0 rank 0 bank 3 row 97 partid 2 0x308c40
row miss channel 0 rank 0 bank 15 row 97 partid 1 0x30be40
row miss channel 0 rank 0 bank 22 row 97 partid 1 0x30da40
row miss channel 0 rank 0 bank 25 row 97 partid 1 0x30e640
row miss channel 0 rank 0 bank 18 row 97 partid 2 0x30cb40
row miss channel 0 rank 0 bank 31 row 97 partid 1 0x30fe40
row miss channel 0 rank 0 bank 2 row 98 partid 1 0x310a40
row miss channel 0 rank 0 bank 9 row 98 partid 1 0x312640
row miss channel 0 rank 0 bank 6 row 98 partid 2 0x311a40
row miss channel 0 rank 0 bank 15 row 98 partid 1 0x313e40
row miss channel 0 rank 0 bank 18 row 98 partid 1 0x314a40
row miss channel 0 rank 0 bank 25 row 98 partid 1 0x316640
row miss channel 0 rank 0 bank 22 row 98 partid 2 0x315940
row miss channel 0 rank 0 bank 31 row 98 partid 1 0x317e40
row miss channel 0 rank 0 bank 2 row 99 partid 1 0x318a40
row miss channel 0 rank 0 bank 9 row 99 partid 1 0x31a640
row miss channel 0 rank 0 bank 6 row 99 partid 2 0x319840
row miss channel 0 rank 0 bank 15 row 99 partid 1 0x31be40
row miss channel 0 rank 0 bank 18 row 99 partid 1 0x31ca40
row miss channel 0 rank 0 bank 25 row 99 partid 1 0x31e640
row miss channel 0 rank 0 bank 21 row 99 partid 2 0x31d740
row miss channel 0 rank 0 bank 31 row 99 partid 1 0x31fe40
row miss channel 0 rank 0 bank 2 row 100 partid 1 0x320a40
row miss channel 0 rank 0 bank 9 row 100 partid 1 0x322640
row miss channel 0 rank 0 bank 5 row 100 partid 2 0x321640
row miss channel 0 rank 0 bank 15 row 100 partid 1 0x323e40
row miss channel 0 rank 0 bank 18 row 100 partid 1 0x324a40
row miss channel 0 rank 0 bank 21 row 100 partid 1 0x325640
row miss channel 0 rank 0 bank 25 row 100 partid 2 0x326540
row miss channel 0 rank 0 bank 31 row 100 partid 1 0x327e40
row miss channel 0 rank 0 bank 2 row 101 partid 1 0x328a40
row miss channel 0 rank 0 bank 5 row 101 partid 1 0x329640
row miss channel 0 rank 0 bank 9 row 101 partid 2 0x32a440
row miss channel 0 rank 0 bank 15 row 101 partid 1 0x32be40
row miss channel 0 rank 0 bank 18 row 101 partid 1 0x32ca40
row miss channel 0 rank 0 bank 21 row 101 partid 1 0x32d640
row miss channel 0 rank 0 bank 28 row 101 partid 1 0x32f240
row miss channel 0 rank 0 bank 31 row 101 partid 1 0x32fe40
row miss channel 0 rank 0 bank 2 row 102 partid 1 0x330a40
row miss channel 0 rank 0 bank 5 row 102 partid 1 0x331640
row miss channel 0 rank 0 bank 12 row 102 partid 1 0x333240
row miss channel 0 rank 0 bank 15 row 102 partid 1 0x333e40
row miss channel 0 rank 0 bank 18 row 102 partid 1 0x334a40
row miss channel 0 rank 0 bank 21 row 102 partid 1 0x335640
row miss channel 0 rank 0 bank 28 row 102 partid 1 0x337240
row miss channel 0 rank 0 bank 31 row 102 partid 1 0x337e40
row miss channel 0 rank 0 bank 2 row 103 partid 1 0x338a40
row miss channel 0 rank 0 bank 5 row 103 partid 1 0x339640
row miss channel 0 rank 0 bank 8 row 103 partid 1 0x33a240
row miss channel 0 rank 0 bank 11 row 103 partid 1 0x33ae40
row miss channel 0 rank 0 bank 18 row 103 partid 1 0x33ca40
row miss channel 0 rank 0 bank 21 row 103 partid 1 0x33d640
row miss channel 0 rank 0 bank 15 row 103 partid 2 0x33bf40
row miss channel 0 rank 0 bank 27 row 103 partid 1 0x33ee40
row miss channel 0 rank 0 bank 2 row 104 partid 1 0x340a40
row miss channel 0 rank 0 bank 5 row 104 partid 1 0x341640
row miss channel 0 rank 0 bank 31 row 103 partid 2 0x33fe40
row miss channel 0 rank 0 bank 11 row 104 partid 1 0x342e40
row miss channel 0 rank 0 bank 18 row 104 partid 1 0x344a40
row miss channel 0 rank 0 bank 21 row 104 partid 1 0x345640
row miss channel 0 rank 0 bank 15 row 104 partid 2 0x343d40
row miss channel 0 rank 0 bank 27 row 104 partid 1 0x346e40
row miss channel 0 rank 0 bank 2 row 105 partid 1 0x348a40
row miss channel 0 rank 0 bank 5 row 105 partid 1 0x349640
row miss channel 0 rank 0 bank 31 row 104 partid 2 0x347c40
row miss channel 0 rank 0 bank 11 row 105 partid 1 0x34ae40
row miss channel 0 rank 0 bank 18 row 105 partid 1 0x34ca40
row miss channel 0 rank 0 bank 21 row 105 partid 1 0x34d640
row miss channel 0 rank 0 bank 14 row 105 partid 2 0x34bb40
row miss channel 0 rank 0 bank 27 row 105 partid 1 0x34ee40
row miss channel 0 rank 0 bank 30 row 105 partid 1 0x34fa40
row miss channel 0 rank 0 bank 5 row 106 partid 1 0x351640
row miss channel 0 rank 0 bank 2 row 106 partid 2 0x350a40
row miss channel 0 rank 0 bank 11 row 106 partid 1 0x352e40
row miss channel 0 rank 0 bank 14 row 106 partid 1 0x353a40
row miss channel 0 rank 0 bank 21 row 106 partid 1 0x355640
row miss channel 0 rank 0 bank 18 row 106 partid 2 0x354940
row miss channel 0 rank 0 bank 27 row 106 partid 1 0x356e40
row miss channel 0 rank 0 bank 30 row 106 partid 1 0x357a40
row miss channel 0 rank 0 bank 5 row 107 partid 1 0x359640
row miss channel 0 rank 0 bank 2 row 107 partid 2 0x358840
row miss channel 0 rank 0 bank 11 row 107 partid 1 0x35ae80
row miss channel 0 rank 0 bank 3 row 107 partid 2 0x358fc0
row miss channel 0 rank 0 bank 16 row 107 partid 2 0x35c380
row miss channel 0 rank 0 bank 18 row 27 partid 1 0xdc840
row miss channel 0 rank 0 bank 31 row 107 partid 1 0x35fd80
row miss channel 0 rank 0 bank 27 row 108 partid 1 0x366d00
row miss channel 0 rank 0 bank 18 row 107 partid 2 0x35cb00
row miss channel 0 rank 0 bank 27 row 108 partid 1 0x366ec0
row miss channel 0 rank 0 bank 19 row 107 partid 2 0x35cec0
row miss channel 0 rank 0 bank 21 row 108 partid 1 0x365680
row miss channel 0 rank 0 bank 28 row 108 partid 2 0x367280
row miss channel 0 rank 0 bank 29 row 108 partid 2 0x367640
row miss channel 0 rank 0 bank 30 row 108 partid 2 0x367a00
row miss channel 0 rank 0 bank 31 row 108 partid 2 0x367dc0
row miss channel 0 rank 0 bank 25 row 108 partid 1 0x3664c0
row miss channel 0 rank 0 bank 16 row 79 partid 1 0x27c180
row miss channel 0 rank 0 bank 5 row 109 partid 2 0x369540
row miss channel 0 rank 0 bank 6 row 109 partid 2 0x369900
row miss channel 0 rank 0 bank 7 row 109 partid 2 0x369cc0
row miss channel 0 rank 0 bank 13 row 109 partid 1 0x36b7c0
row miss channel 0 rank 0 bank 24 row 109 partid 1 0x36e3c0
row miss channel 0 rank 0 bank 27 row 109 partid 1 0x36efc0
row miss channel 0 rank 0 bank 30 row 109 partid 1 0x36fbc0
row miss channel 0 rank 0 bank 1 row 110 partid 1 0x3707c0
row miss channel 0 rank 0 bank 8 row 110 partid 1 0x3723c0
row miss channel 0 rank 0 bank 11 row 110 partid 1 0x372fc0
row miss channel 0 rank 0 bank 14 row 110 partid 1 0x373bc0
row miss channel 0 rank 0 bank 17 row 110 partid 1 0x3747c0
row miss channel 0 rank 0 bank 24 row 110 partid 1 0x3763c0
row miss channel 0 rank 0 bank 27 row 110 partid 1 0x376fc0
row miss channel 0 rank 0 bank 18 row 109 partid 1 0x36cbc0
row miss channel 0 rank 0 bank 1 row 111 partid 1 0x3787c0
row miss channel 0 rank 0 bank 8 row 111 partid 1 0x37a3c0
row miss channel 0 rank 0 bank 11 row 111 partid 1 0x37afc0
row miss channel 0 rank 0 bank 14 row 111 partid 1 0x37bbc0
row miss channel 0 rank 0 bank 22 row 84 partid 1 0x2a5a40
row miss channel 0 rank 0 bank 21 row 76 partid 1 0x2655c0
row miss channel 0 rank 0 bank 28 row 111 partid 2 0x37f040
row miss channel 0 rank 0 bank 13 row 112 partid 1 0x383700
row miss channel 0 rank 0 bank 29 row 111 partid 2 0x37f7c0
row miss channel 0 rank 0 bank 19 row 112 partid 1 0x384f00
row miss channel 0 rank 0 bank 0 row 113 partid 2 0x388300
row miss channel 0 rank 0 bank 1 row 113 partid 2 0x3886c0
row miss channel 0 rank 0 bank 2 row 113 partid 2 0x388a80
row miss channel 0 rank 0 bank 9 row 78 partid 1 0x272580
row miss channel 0 rank 0 bank 27 row 78 partid 1 0x276e00
row miss channel 0 rank 0 bank 10 row 78 partid 1 0x272a40
row miss channel 0 rank 0 bank 3 row 113 partid 2 0x388e40
row miss channel 0 rank 0 bank 15 row 113 partid 1 0x38bc40
row miss channel 0 rank 0 bank 22 row 113 partid 1 0x38d8c0
row miss channel 0 rank 0 bank 18 row 113 partid 2 0x38c980
row miss channel 0 rank 0 bank 16 row 75 partid 1 0x25c000
TBENCH_MAXREQS = 10000
TBENCH_WARMUPREQS = 1000
TBENCH_MINSLEEPNS = 10000
TBENCH_RANDSEED = 0
TBENCH_QPS = 150.0

gem5 test
row miss channel 0 rank 0 bank 27 row 114 partid 1 0x396c00
row miss channel 0 rank 0 bank 26 row 114 partid 1 0x396a40
row miss channel 0 rank 0 bank 18 row 113 partid 2 0x38cbc0
row miss channel 0 rank 0 bank 19 row 113 partid 2 0x38cd40
row miss channel 0 rank 0 bank 20 row 115 partid 2 0x39d100
row miss channel 0 rank 0 bank 21 row 115 partid 2 0x39d4c0
row miss channel 0 rank 0 bank 28 row 116 partid 1 0x3a7100
row miss channel 0 rank 0 bank 18 row 115 partid 1 0x39c980
row miss channel 0 rank 0 bank 23 row 116 partid 1 0x3a5fc0
row miss channel 0 rank 0 bank 14 row 115 partid 1 0x39ba40
row miss channel 0 rank 0 bank 14 row 115 partid 1 0x39b9c0
row miss channel 0 rank 0 bank 22 row 117 partid 2 0x3adb40
row miss channel 0 rank 0 bank 19 row 115 partid 1 0x39cf00
row miss channel 0 rank 0 bank 0 row 119 partid 2 0x3b82c0
row miss channel 0 rank 0 bank 9 row 52 partid 1 0x1a2680
row miss channel 0 rank 0 bank 8 row 52 partid 1 0x1a2180
row miss channel 0 rank 0 bank 27 row 119 partid 1 0x3bef40
row miss channel 0 rank 0 bank 2 row 119 partid 2 0x3b8a40
row miss channel 0 rank 0 bank 21 row 38 partid 1 0x135780
row miss channel 0 rank 0 bank 3 row 119 partid 2 0x3b8e00
row miss channel 0 rank 0 bank 21 row 120 partid 2 0x3c5580
row miss channel 0 rank 0 bank 29 row 0 partid 1 0x7480
row miss channel 0 rank 0 bank 22 row 120 partid 2 0x3c5940
row miss channel 0 rank 0 bank 30 row 121 partid 1 0x3cfb40
row miss channel 0 rank 0 bank 8 row 122 partid 2 0x3d20c0
row miss channel 0 rank 0 bank 9 row 122 partid 2 0x3d2480
row miss channel 0 rank 0 bank 10 row 122 partid 2 0x3d2840
row miss channel 0 rank 0 bank 11 row 122 partid 2 0x3d2c00
row miss channel 0 rank 0 bank 30 row 122 partid 1 0x3d7880
row miss channel 0 rank 0 bank 12 row 123 partid 1 0x3db000
row miss channel 0 rank 0 bank 1 row 123 partid 2 0x3d8740
row miss channel 0 rank 0 bank 2 row 123 partid 2 0x3d8b00
row miss channel 0 rank 0 bank 3 row 123 partid 2 0x3d8ec0
row miss channel 0 rank 0 bank 15 row 120 partid 1 0x3c3ec0
row miss channel 0 rank 0 bank 8 row 120 partid 1 0x3c2140
row miss channel 0 rank 0 bank 19 row 124 partid 1 0x3e4e40
row miss channel 0 rank 0 bank 13 row 124 partid 2 0x3e3640
row miss channel 0 rank 0 bank 8 row 120 partid 1 0x3c2180
row miss channel 0 rank 0 bank 28 row 124 partid 1 0x3e7000
row miss channel 0 rank 0 bank 23 row 124 partid 2 0x3e5cc0
row miss channel 0 rank 0 bank 8 row 125 partid 2 0x3ea080
row miss channel 0 rank 0 bank 24 row 124 partid 1 0x3e6040
row miss channel 0 rank 0 bank 9 row 125 partid 2 0x3ea440
row miss channel 0 rank 0 bank 10 row 125 partid 2 0x3ea800
row miss channel 0 rank 0 bank 24 row 5 partid 1 0x2e100
row miss channel 0 rank 0 bank 18 row 0 partid 1 0x4b00
row miss channel 0 rank 0 bank 11 row 125 partid 2 0x3eaf80
row miss channel 0 rank 0 bank 5 row 112 partid 1 0x3817c0
row miss channel 0 rank 0 bank 19 row 124 partid 1 0x3e4c00
row miss channel 0 rank 0 bank 21 row 125 partid 2 0x3ed700
row miss channel 0 rank 0 bank 14 row 1 partid 1 0xb800
row miss channel 0 rank 0 bank 25 row 125 partid 1 0x3ee600
row miss channel 0 rank 0 bank 15 row 1 partid 1 0xbd40
row miss channel 0 rank 0 bank 16 row 1 partid 1 0xc100
row miss channel 0 rank 0 bank 3 row 128 partid 1 0x400f80
row miss channel 0 rank 0 bank 24 row 127 partid 1 0x3fe1c0
row miss channel 0 rank 0 bank 29 row 127 partid 2 0x3ff600
row miss channel 0 rank 0 bank 31 row 127 partid 2 0x3ffd80
row miss channel 0 rank 0 bank 4 row 1 partid 1 0x9000
row miss channel 0 rank 0 bank 5 row 129 partid 1 0x409500
row miss channel 0 rank 0 bank 9 row 129 partid 2 0x40a500
row miss channel 0 rank 0 bank 15 row 129 partid 1 0x40be80
row miss channel 0 rank 0 bank 18 row 129 partid 1 0x40cb00
row miss channel 0 rank 0 bank 30 row 129 partid 1 0x40fa80
row miss channel 0 rank 0 bank 11 row 129 partid 2 0x40ac80
row miss channel 0 rank 0 bank 1 row 38 partid 1 0x130680
row miss channel 0 rank 0 bank 28 row 129 partid 1 0x40f2c0
row miss channel 0 rank 0 bank 12 row 130 partid 2 0x413040
row miss channel 0 rank 0 bank 2 row 131 partid 1 0x418900
row missnow 1000000000.004227
finish init 1000000000.004254
populate 0 sz 10000
 channel 0 rank 0 bank 3 row 115 partid 1 0x398dc0
row miss channel 0 rank 0 bank 13 row 131 partid 1 0x41b540
row miss channel 0 rank 0 bank 3 row 115 partid 1 0x398d40
row miss channel 0 rank 0 bank 14 row 131 partid 1 0x41b800
row miss channel 0 rank 0 bank 14 row 130 partid 2 0x413b80
row miss channel 0 rank 0 bank 27 row 130 partid 1 0x416cc0
row miss channel 0 rank 0 bank 20 row 0 partid 1 0x5300
row miss channel 0 rank 0 bank 24 row 2 partid 1 0x16000
row miss channel 0 rank 0 bank 1 row 131 partid 1 0x4184c0
row miss channel 0 rank 0 bank 14 row 126 partid 1 0x3f3ac0
row miss channel 0 rank 0 bank 4 row 132 partid 1 0x4211c0
row miss channel 0 rank 0 bank 17 row 132 partid 2 0x4246c0
row miss channel 0 rank 0 bank 26 row 132 partid 1 0x426ac0
row miss channel 0 rank 0 bank 23 row 3 partid 1 0x1dd00
row miss channel 0 rank 0 bank 0 row 132 partid 1 0x420040
row miss channel 0 rank 0 bank 8 row 132 partid 1 0x422280
row miss channel 0 rank 0 bank 24 row 133 partid 2 0x42e000
row miss channel 0 rank 0 bank 27 row 133 partid 2 0x42ef00
row miss channel 0 rank 0 bank 25 row 3 partid 1 0x1e600
row miss channel 0 rank 0 bank 5 row 132 partid 1 0x421440
row hit channel 0 rank 0 bank 5 row 132 partid 1 0x4215c0
row miss channel 0 rank 0 bank 25 row 134 partid 2 0x436740
row miss channel 0 rank 0 bank 26 row 134 partid 2 0x436b00
row miss channel 0 rank 0 bank 27 row 134 partid 2 0x436ec0
row miss channel 0 rank 0 bank 9 row 134 partid 1 0x4324c0
row miss channel 0 rank 0 bank 5 row 135 partid 2 0x439640
row miss channel 0 rank 0 bank 10 row 135 partid 2 0x43a900
row miss channel 0 rank 0 bank 11 row 135 partid 2 0x43acc0
row miss channel 0 rank 0 bank 12 row 135 partid 2 0x43b080
row miss channel 0 rank 0 bank 14 row 135 partid 2 0x43bbc0
row miss channel 0 rank 0 bank 17 row 135 partid 2 0x43c700
row miss channel 0 rank 0 bank 19 row 135 partid 2 0x43ce80
row miss channel 0 rank 0 bank 18 row 134 partid 1 0x434980
row miss channel 0 rank 0 bank 25 row 135 partid 2 0x43e500
row miss channel 0 rank 0 bank 13 row 136 partid 2 0x4437c0
row miss channel 0 rank 0 bank 16 row 136 partid 1 0x444300
row miss channel 0 rank 0 bank 19 row 136 partid 1 0x444f80
row miss channel 0 rank 0 bank 27 row 136 partid 1 0x446c00
row miss channel 0 rank 0 bank 29 row 136 partid 2 0x4475c0
row miss channel 0 rank 0 bank 31 row 136 partid 2 0x447d40
row miss channel 0 rank 0 bank 1 row 137 partid 2 0x4484c0
row miss channel 0 rank 0 bank 3 row 137 partid 2 0x448c40
row miss channel 0 rank 0 bank 4 row 137 partid 2 0x4493c0
row miss channel 0 rank 0 bank 7 row 137 partid 2 0x449f00
row miss channel 0 rank 0 bank 16 row 138 partid 2 0x4540c0
row miss channel 0 rank 0 bank 2 row 138 partid 1 0x4509c0
row miss channel 0 rank 0 bank 19 row 138 partid 2 0x454fc0
row miss channel 0 rank 0 bank 4 row 138 partid 1 0x4511c0
row miss channel 0 rank 0 bank 25 row 138 partid 1 0x456640
row miss channel 0 rank 0 bank 22 row 138 partid 2 0x455b00
row miss channel 0 rank 0 bank 31 row 138 partid 1 0x457f40
row miss channel 0 rank 0 bank 1 row 139 partid 2 0x458640
row miss channel 0 rank 0 bank 2 row 139 partid 2 0x458a00
row miss channel 0 rank 0 bank 20 row 139 partid 2 0x45d180
row miss channel 0 rank 0 bank 21 row 139 partid 2 0x45d540
row miss channel 0 rank 0 bank 27 row 139 partid 2 0x45ef80
row miss channel 0 rank 0 bank 30 row 139 partid 2 0x45fac0
row miss channel 0 rank 0 bank 22 row 140 partid 2 0x4658c0
row miss channel 0 rank 0 bank 27 row 140 partid 2 0x466f40
row miss channel 0 rank 0 bank 15 row 140 partid 1 0x463cc0
row miss channel 0 rank 0 bank 29 row 140 partid 2 0x4676c0
row miss channel 0 rank 0 bank 18 row 141 partid 1 0x46cb00
row miss channel 0 rank 0 bank 21 row 141 partid 1 0x46d780
row miss channel 0 rank 0 bank 27 row 141 partid 2 0x46ed40
row miss channel 0 rank 0 bank 3 row 141 partid 1 0x468cc0
row miss channel 0 rank 0 bank 1 row 142 partid 2 0x470780
row miss channel 0 rank 0 bank 19 row 137 partid 1 0x44cc80
row miss channel 0 rank 0 bank 5 row 142 partid 2 0x471680
row miss channel 0 rank 0 bank 6 row 142 partid 2 0x471a40
row miss channel 0 rank 0 bank 13 row 142 partid 2 0x473480
row miss channel 0 rank 0 bank 14 row 142 partid 2 0x473840
row miss channel 0 rank 0 bank 2 row 143 partid 2 0x478b00
row miss channel 0 rank 0 bank 3 row 143 partid 2 0x478ec0
row miss channel 0 rank 0 bank 7 row 143 partid 1 0x479d80
row miss channel 0 rank 0 bank 14 row 143 partid 1 0x47ba00
row miss channel 0 rank 0 bank 7 row 132 partid 1 0x421e80
row miss channel 0 rank 0 bank 18 row 143 partid 2 0x47c900
row miss channel 0 rank 0 bank 23 row 143 partid 2 0x47df80
row miss channel 0 rank 0 bank 25 row 143 partid 2 0x47e700
row miss channel 0 rank 0 bank 27 row 143 partid 2 0x47ee80
row miss channel 0 rank 0 bank 28 row 144 partid 2 0x487240
row miss channel 0 rank 0 bank 2 row 145 partid 2 0x4888c0
row miss channel 0 rank 0 bank 4 row 145 partid 2 0x489040
row miss channel 0 rank 0 bank 8 row 145 partid 1 0x48a180
row miss channel 0 rank 0 bank 27 row 145 partid 2 0x48ee40
row miss channel 0 rank 0 bank 29 row 145 partid 2 0x48f5c0
row miss channel 0 rank 0 bank 3 row 146 partid 1 0x490d00
row miss channel 0 rank 0 bank 6 row 146 partid 1 0x491980
row miss channel 0 rank 0 bank 8 row 146 partid 2 0x492100
row miss channel 0 rank 0 bank 9 row 146 partid 2 0x4924c0
row miss channel 0 rank 0 bank 10 row 146 partid 2 0x492880
row miss channel 0 rank 0 bank 11 row 146 partid 2 0x492c40
row miss channel 0 rank 0 bank 13 row 146 partid 2 0x493780
row miss channel 0 rank 0 bank 0 row 147 partid 2 0x4982c0
row miss channel 0 rank 0 bank 27 row 147 partid 2 0x49ec00
row miss channel 0 rank 0 bank 29 row 147 partid 2 0x49f740
row miss channel 0 rank 0 bank 30 row 147 partid 2 0x49fb00
row miss channel 0 rank 0 bank 1 row 148 partid 2 0x4a0640
row miss channel 0 rank 0 bank 5 row 148 partid 2 0x4a1540
row miss channel 0 rank 0 bank 11 row 148 partid 1 0x4a2cc0
row miss channel 0 rank 0 bank 14 row 148 partid 1 0x4a3940
row miss channel 0 rank 0 bank 19 row 148 partid 2 0x4a4f80
row miss channel 0 rank 0 bank 27 row 148 partid 1 0x4a6d80
row miss channel 0 rank 0 bank 6 row 149 partid 2 0x4a9ac0
row miss channel 0 rank 0 bank 7 row 149 partid 2 0x4a9e80
row miss channel 0 rank 0 bank 9 row 149 partid 2 0x4aa600
row miss channel 0 rank 0 bank 18 row 149 partid 2 0x4acb80
row miss channel 0 rank 0 bank 5 row 150 partid 2 0x4b16c0
row miss channel 0 rank 0 bank 13 row 150 partid 1 0x4b3500
row miss channel 0 rank 0 bank 17 row 150 partid 2 0x4b44c0
row miss channel 0 rank 0 bank 23 row 150 partid 1 0x4b5e00
row miss channel 0 rank 0 bank 25 row 150 partid 2 0x4b6780
row miss channel 0 rank 0 bank 26 row 150 partid 2 0x4b6b40
row miss channel 0 rank 0 bank 27 row 150 partid 2 0x4b6f00
row miss channel 0 rank 0 bank 9 row 151 partid 2 0x4ba680
row miss channel 0 rank 0 bank 10 row 151 partid 2 0x4baa40
row miss channel 0 rank 0 bank 11 row 151 partid 2 0x4bae00
row miss channel 0 rank 0 bank 1 row 152 partid 2 0x4c0580
row miss channel 0 rank 0 bank 4 row 152 partid 2 0x4c10c0
row miss channel 0 rank 0 bank 25 row 151 partid 1 0x4be580
row miss channel 0 rank 0 bank 8 row 152 partid 2 0x4c2380
row miss channel 0 rank 0 bank 9 row 152 partid 2 0x4c2740
row miss channel 0 rank 0 bank 21 row 144 partid 1 0x485780
row miss channel 0 rank 0 bank 10 row 152 partid 2 0x4c2b00
row miss channel 0 rank 0 bank 15 row 152 partid 2 0x4c3dc0
row miss channel 0 rank 0 bank 0 row 153 partid 2 0x4c8180
row miss channel 0 rank 0 bank 10 row 153 partid 1 0x4caa00
row miss channel 0 rank 0 bank 13 row 153 partid 1 0x4cb680
row miss channel 0 rank 0 bank 6 row 153 partid 2 0x4c9bc0
row miss channel 0 rank 0 bank 16 row 153 partid 2 0x4cc340
row miss channel 0 rank 0 bank 17 row 153 partid 2 0x4cc700
row miss channel 0 rank 0 bank 19 row 153 partid 2 0x4cce80
row miss channel 0 rank 0 bank 25 row 153 partid 2 0x4ce500
row miss channel 0 rank 0 bank 27 row 153 partid 2 0x4cec80
row miss channel 0 rank 0 bank 22 row 144 partid 1 0x485b40
row miss channel 0 rank 0 bank 30 row 153 partid 1 0x4cfac0
row miss channel 0 rank 0 bank 13 row 154 partid 2 0x4d37c0
row miss channel 0 rank 0 bank 21 row 154 partid 2 0x4d55c0
row miss channel 0 rank 0 bank 22 row 154 partid 2 0x4d5980
row miss channel 0 rank 0 bank 31 row 154 partid 1 0x4d7dc0
row miss channel 0 rank 0 bank 26 row 154 partid 2 0x4d6880
row miss channel 0 rank 0 bank 13 row 155 partid 2 0x4db780
row miss channel 0 rank 0 bank 14 row 155 partid 2 0x4dbb40
row miss channel 0 rank 0 bank 15 row 155 partid 2 0x4dbf00
row miss channel 0 rank 0 bank 7 row 156 partid 1 0x4e1d80
row miss channel 0 rank 0 bank 1 row 155 partid 1 0x4d8400
row miss channel 0 rank 0 bank 12 row 156 partid 2 0x4e31c0
row miss channel 0 rank 0 bank 16 row 156 partid 2 0x4e40c0
row miss channel 0 rank 0 bank 17 row 156 partid 2 0x4e4480
row miss channel 0 rank 0 bank 22 row 156 partid 1 0x4e5b40
row miss channel 0 rank 0 bank 11 row 157 partid 2 0x4eadc0
row miss channel 0 rank 0 bank 28 row 157 partid 2 0x4ef180
row miss channel 0 rank 0 bank 29 row 157 partid 2 0x4ef540
row miss channel 0 rank 0 bank 2 row 158 partid 2 0x4f0800
row miss channel 0 rank 0 bank 2 row 158 partid 2 0x4f0bc0
row miss channel 0 rank 0 bank 7 row 158 partid 1 0x4f1cc0
row miss channel 0 rank 0 bank 5 row 158 partid 1 0x4f1480
row miss channel 0 rank 0 bank 8 row 158 partid 1 0x4f2180
row miss channel 0 rank 0 bank 29 row 158 partid 1 0x4f77c0
row miss channel 0 rank 0 bank 26 row 158 partid 2 0x4f69c0
row miss channel 0 rank 0 bank 29 row 146 partid 1 0x4975c0
row miss channel 0 rank 0 bank 19 row 146 partid 1 0x494dc0
row miss channel 0 rank 0 bank 1 row 160 partid 2 0x5005c0
row miss channel 0 rank 0 bank 3 row 160 partid 2 0x500d40
row miss channel 0 rank 0 bank 7 row 160 partid 2 0x501c40
row miss channel 0 rank 0 bank 30 row 160 partid 2 0x507a40
row miss channel 0 rank 0 bank 2 row 161 partid 2 0x508940
row miss channel 0 rank 0 bank 9 row 161 partid 1 0x50a700
row miss channel 0 rank 0 bank 15 row 161 partid 2 0x50bc00
row miss channel 0 rank 0 bank 17 row 152 partid 1 0x4c4440
row miss channel 0 rank 0 bank 18 row 161 partid 2 0x50cb00
row miss channel 0 rank 0 bank 19 row 161 partid 2 0x50cec0
row miss channel 0 rank 0 bank 10 row 162 partid 2 0x512900
row miss channel 0 rank 0 bank 12 row 162 partid 2 0x513080
row miss channel 0 rank 0 bank 15 row 162 partid 2 0x513f80
row miss channel 0 rank 0 bank 5 row 163 partid 2 0x519600
row miss channel 0 rank 0 bank 8 row 163 partid 2 0x51a140
row miss channel 0 rank 0 bank 10 row 163 partid 2 0x51a8c0
row miss channel 0 rank 0 bank 11 row 163 partid 2 0x51ac80
row miss channel 0 rank 0 bank 19 row 163 partid 1 0x51cf00
row miss channel 0 rank 0 bank 23 row 163 partid 2 0x51df40
row miss channel 0 rank 0 bank 14 row 164 partid 2 0x523980
row miss channel 0 rank 0 bank 12 row 134 partid 1 0x433200
row hit channel 0 rank 0 bank 16 row 164 partid 2 0x524100
row miss channel 0 rank 0 bank 3 row 164 partid 1 0x520d40
row miss channel 0 rank 0 bank 19 row 164 partid 2 0x524c40
row miss channel 0 rank 0 bank 31 row 164 partid 1 0x527c00
row miss channel 0 rank 0 bank 1 row 165 partid 2 0x528780
row miss channel 0 rank 0 bank 2 row 165 partid 2 0x528b40
row miss channel 0 rank 0 bank 27 row 165 partid 2 0x52ee00
row miss channel 0 rank 0 bank 24 row 152 partid 1 0x4c6200
row hit channel 0 rank 0 bank 30 row 165 partid 2 0x52f940
row miss channel 0 rank 0 bank 5 row 166 partid 1 0x5317c0
row miss channel 0 rank 0 bank 3 row 166 partid 2 0x530fc0
row miss channel 0 rank 0 bank 5 row 167 partid 2 0x539540
row miss channel 0 rank 0 bank 8 row 167 partid 2 0x53a080
row miss channel 0 rank 0 bank 9 row 167 partid 2 0x53a440
row miss channel 0 rank 0 bank 10 row 167 partid 2 0x53a800
row miss channel 0 rank 0 bank 22 row 167 partid 1 0x53d8c0
row miss channel 0 rank 0 bank 3 row 168 partid 2 0x540d80
row miss channel 0 rank 0 bank 6 row 168 partid 2 0x5418c0
row miss channel 0 rank 0 bank 15 row 168 partid 1 0x543c00
row miss channel 0 rank 0 bank 30 row 168 partid 1 0x547b00
row miss channel 0 rank 0 bank 5 row 169 partid 1 0x549780
row miss channel 0 rank 0 bank 1 row 169 partid 2 0x5486c0
row miss channel 0 rank 0 bank 17 row 168 partid 1 0x544500
row miss channel 0 rank 0 bank 21 row 168 partid 1 0x545640
row miss channel 0 rank 0 bank 11 row 169 partid 2 0x54ad40
row miss channel 0 rank 0 bank 22 row 168 partid 1 0x545b00
row miss channel 0 rank 0 bank 0 row 170 partid 1 0x550380
row miss channel 0 rank 0 bank 20 row 170 partid 2 0x5552c0
row miss channel 0 rank 0 bank 25 row 170 partid 2 0x556580
row miss channel 0 rank 0 bank 13 row 170 partid 1 0x5535c0
row miss channel 0 rank 0 bank 29 row 170 partid 2 0x557480
row miss channel 0 rank 0 bank 5 row 170 partid 1 0x551540
row miss channel 0 rank 0 bank 20 row 171 partid 2 0x55d280
row miss channel 0 rank 0 bank 21 row 171 partid 2 0x55d640
row miss channel 0 rank 0 bank 21 row 172 partid 2 0x565440
row miss channel 0 rank 0 bank 22 row 172 partid 2 0x565bc0
row miss channel 0 rank 0 bank 24 row 172 partid 2 0x566340
row miss channel 0 rank 0 bank 25 row 172 partid 2 0x566700
row miss channel 0 rank 0 bank 27 row 172 partid 2 0x566e80
row miss channel 0 rank 0 bank 30 row 172 partid 2 0x5679c0
row miss channel 0 rank 0 bank 31 row 172 partid 2 0x567d80
row miss channel 0 rank 0 bank 2 row 173 partid 1 0x568800
row miss channel 0 rank 0 bank 18 row 173 partid 2 0x56c8c0
row miss channel 0 rank 0 bank 20 row 173 partid 2 0x56d040
row miss channel 0 rank 0 bank 28 row 164 partid 1 0x527240
row miss channel 0 rank 0 bank 21 row 173 partid 2 0x56d7c0
row miss channel 0 rank 0 bank 23 row 173 partid 2 0x56df40
row miss channel 0 rank 0 bank 8 row 174 partid 2 0x572300
row miss channel 0 rank 0 bank 13 row 174 partid 2 0x5735c0
row miss channel 0 rank 0 bank 14 row 174 partid 2 0x573980
row miss channel 0 rank 0 bank 28 row 79 partid 1 0x27f200
row miss channel 0 rank 0 bank 15 row 174 partid 2 0x573d40
row miss channel 0 rank 0 bank 24 row 174 partid 1 0x576100
row miss channel 0 rank 0 bank 27 row 174 partid 1 0x576d80
row miss channel 0 rank 0 bank 27 row 152 partid 1 0x4c6e40
row miss channel 0 rank 0 bank 18 row 175 partid 2 0x57ca40
row miss channel 0 rank 0 bank 22 row 165 partid 1 0x52dac0
row miss channel 0 rank 0 bank 22 row 175 partid 2 0x57d940
row miss channel 0 rank 0 bank 26 row 175 partid 2 0x57e840
row miss channel 0 rank 0 bank 25 row 161 partid 1 0x50e540
row miss channel 0 rank 0 bank 13 row 176 partid 2 0x583740
row miss channel 0 rank 0 bank 14 row 176 partid 2 0x583b00
row miss channel 0 rank 0 bank 18 row 176 partid 2 0x584a00
row miss channel 0 rank 0 bank 19 row 176 partid 2 0x584dc0
row miss channel 0 rank 0 bank 6 row 140 partid 1 0x461b80
row miss channel 0 rank 0 bank 21 row 176 partid 2 0x585540
row miss channel 0 rank 0 bank 8 row 177 partid 2 0x58a080
row miss channel 0 rank 0 bank 13 row 177 partid 1 0x58b540
row miss channel 0 rank 0 bank 10 row 177 partid 2 0x58a800
row miss channel 0 rank 0 bank 19 row 177 partid 1 0x58ce40
row miss channel 0 rank 0 bank 22 row 177 partid 2 0x58dac0
row miss channel 0 rank 0 bank 23 row 177 partid 2 0x58de80
row miss channel 0 rank 0 bank 25 row 177 partid 2 0x58e600
row miss channel 0 rank 0 bank 27 row 177 partid 2 0x58ed80
row miss channel 0 rank 0 bank 13 row 178 partid 2 0x593500
row miss channel 0 rank 0 bank 14 row 178 partid 2 0x5938c0
row miss channel 0 rank 0 bank 15 row 178 partid 2 0x593c80
row miss channel 0 rank 0 bank 16 row 178 partid 2 0x594040
row miss channel 0 rank 0 bank 17 row 178 partid 2 0x5947c0
row miss channel 0 rank 0 bank 19 row 178 partid 2 0x594f40
row miss channel 0 rank 0 bank 21 row 178 partid 2 0x5956c0
row miss channel 0 rank 0 bank 23 row 178 partid 2 0x595e40
row miss channel 0 rank 0 bank 11 row 179 partid 2 0x59ad40
row miss channel 0 rank 0 bank 12 row 179 partid 2 0x59b100
row miss channel 0 rank 0 bank 13 row 179 partid 2 0x59b4c0
row miss channel 0 rank 0 bank 0 row 180 partid 2 0x5a0000
row miss channel 0 rank 0 bank 1 row 180 partid 2 0x5a0780
row miss channel 0 rank 0 bank 3 row 180 partid 2 0x5a0f00
row miss channel 0 rank 0 bank 7 row 180 partid 1 0x5a1cc0
row miss channel 0 rank 0 bank 14 row 180 partid 1 0x5a3940
row miss channel 0 rank 0 bank 10 row 180 partid 2 0x5a2a40
row miss channel 0 rank 0 bank 24 row 167 partid 1 0x53e140
row miss channel 0 rank 0 bank 11 row 180 partid 2 0x5a2e00
row miss channel 0 rank 0 bank 3 row 181 partid 1 0x5a8c00
row miss channel 0 rank 0 bank 30 row 180 partid 2 0x5a7940
row miss channel 0 rank 0 bank 9 row 181 partid 1 0x5aa700
row miss channel 0 rank 0 bank 12 row 173 partid 1 0x56b300
row miss channel 0 rank 0 bank 22 row 152 partid 1 0x4c5b00
row miss channel 0 rank 0 bank 25 row 181 partid 2 0x5ae740
row miss channel 0 rank 0 bank 31 row 181 partid 2 0x5afdc0
row miss channel 0 rank 0 bank 2 row 182 partid 2 0x5b0900
row miss channel 0 rank 0 bank 27 row 182 partid 2 0x5b6f80
row miss channel 0 rank 0 bank 25 row 169 partid 1 0x54e480
row miss channel 0 rank 0 bank 17 row 183 partid 2 0x5bc600
row miss channel 0 rank 0 bank 26 row 167 partid 1 0x53ea00
row miss channel 0 rank 0 bank 22 row 183 partid 1 0x5bd800
row miss channel 0 rank 0 bank 29 row 183 partid 1 0x5bf480
row miss channel 0 rank 0 bank 26 row 183 partid 2 0x5be8c0
row miss channel 0 rank 0 bank 0 row 184 partid 2 0x5c0040
row miss channel 0 rank 0 bank 1 row 184 partid 2 0x5c0400
row miss channel 0 rank 0 bank 0 row 178 partid 1 0x590100
row hit channel 0 rank 0 bank 0 row 178 partid 1 0x590180
row miss channel 0 rank 0 bank 26 row 184 partid 2 0x5c6980
row miss channel 0 rank 0 bank 27 row 184 partid 2 0x5c6d40
row miss channel 0 rank 0 bank 12 row 185 partid 2 0x5cb100
row miss channel 0 rank 0 bank 0 row 185 partid 1 0x5c8340
row miss channel 0 rank 0 bank 15 row 185 partid 2 0x5cbc40
row miss channel 0 rank 0 bank 20 row 185 partid 2 0x5cd2c0
row miss channel 0 rank 0 bank 21 row 185 partid 2 0x5cd680
row miss channel 0 rank 0 bank 22 row 185 partid 2 0x5cda40
row miss channel 0 rank 0 bank 23 row 186 partid 1 0x5d5e00
row miss channel 0 rank 0 bank 9 row 186 partid 2 0x5d2580
row miss channel 0 rank 0 bank 31 row 186 partid 2 0x5d7c00
row miss channel 0 rank 0 bank 31 row 186 partid 2 0x5d7fc0
row miss channel 0 rank 0 bank 7 row 187 partid 1 0x5d9f00
row miss channel 0 rank 0 bank 9 row 187 partid 2 0x5da740
row miss channel 0 rank 0 bank 11 row 187 partid 2 0x5daec0
row miss channel 0 rank 0 bank 12 row 187 partid 2 0x5db280
row miss channel 0 rank 0 bank 15 row 187 partid 2 0x5dbdc0
row miss channel 0 rank 0 bank 28 row 163 partid 1 0x51f2c0
row miss channel 0 rank 0 bank 0 row 188 partid 2 0x5e0180
row miss channel 0 rank 0 bank 6 row 188 partid 2 0x5e1800
row miss channel 0 rank 0 bank 30 row 187 partid 1 0x5dfb80
row miss channel 0 rank 0 bank 30 row 188 partid 2 0x5e79c0
row miss channel 0 rank 0 bank 0 row 189 partid 2 0x5e8140
row miss channel 0 rank 0 bank 1 row 189 partid 2 0x5e8500
row miss channel 0 rank 0 bank 3 row 189 partid 2 0x5e8c80
row miss channel 0 rank 0 bank 21 row 189 partid 2 0x5ed400
row miss channel 0 rank 0 bank 23 row 189 partid 2 0x5edf40
row miss channel 0 rank 0 bank 0 row 175 partid 1 0x578140
row miss channel 0 rank 0 bank 24 row 189 partid 2 0x5ee300
row miss channel 0 rank 0 bank 31 row 189 partid 1 0x5efec0
row miss channel 0 rank 0 bank 2 row 190 partid 1 0x5f0b40
row miss channel 0 rank 0 bank 26 row 190 partid 2 0x5f6880
row miss channel 0 rank 0 bank 28 row 190 partid 2 0x5f73c0
row miss channel 0 rank 0 bank 31 row 190 partid 2 0x5f7f00
row miss channel 0 rank 0 bank 3 row 191 partid 2 0x5f8e00
row miss channel 0 rank 0 bank 26 row 163 partid 1 0x51e840
row miss channel 0 rank 0 bank 20 row 191 partid 2 0x5fd1c0
row miss channel 0 rank 0 bank 25 row 191 partid 2 0x5fe480
row miss channel 0 rank 0 bank 26 row 191 partid 2 0x5fe840
row miss channel 0 rank 0 bank 27 row 191 partid 2 0x5fec00
row miss channel 0 rank 0 bank 27 row 191 partid 2 0x5fefc0
row miss channel 0 rank 0 bank 28 row 191 partid 2 0x5ff380
row miss channel 0 rank 0 bank 17 row 192 partid 2 0x604640
row miss channel 0 rank 0 bank 18 row 192 partid 2 0x604a00
row miss channel 0 rank 0 bank 23 row 192 partid 1 0x605e80
row miss channel 0 rank 0 bank 26 row 192 partid 1 0x606b00
row miss channel 0 rank 0 bank 0 row 193 partid 2 0x608080
row miss channel 0 rank 0 bank 2 row 193 partid 2 0x608800
row miss channel 0 rank 0 bank 3 row 193 partid 2 0x608f80
row miss channel 0 rank 0 bank 21 row 193 partid 2 0x60d700
row miss channel 0 rank 0 bank 22 row 193 partid 2 0x60dac0
row miss channel 0 rank 0 bank 24 row 193 partid 2 0x60e240
row miss channel 0 rank 0 bank 25 row 193 partid 2 0x60e600
row miss channel 0 rank 0 bank 19 row 193 partid 1 0x60ce00
row miss channel 0 rank 0 bank 27 row 193 partid 2 0x60ed80
row miss channel 0 rank 0 bank 5 row 184 partid 1 0x5c1440
row miss channel 0 rank 0 bank 29 row 193 partid 2 0x60f500
row miss channel 0 rank 0 bank 30 row 193 partid 2 0x60f8c0
row miss channel 0 rank 0 bank 17 row 194 partid 2 0x6147c0
row miss channel 0 rank 0 bank 1 row 178 partid 1 0x590480
row miss channel 0 rank 0 bank 18 row 194 partid 2 0x614b80
row miss channel 0 rank 0 bank 20 row 194 partid 2 0x615300
row miss channel 0 rank 0 bank 21 row 194 partid 2 0x6156c0
row miss channel 0 rank 0 bank 22 row 194 partid 2 0x615a80
row miss channel 0 rank 0 bank 26 row 160 partid 1 0x506b80
row miss channel 0 rank 0 bank 23 row 194 partid 2 0x615e40
row miss channel 0 rank 0 bank 10 row 195 partid 2 0x61a980
row miss channel 0 rank 0 bank 30 row 194 partid 1 0x617b00
row miss channel 0 rank 0 bank 13 row 195 partid 2 0x61b4c0
row miss channel 0 rank 0 bank 19 row 195 partid 1 0x61ccc0
row miss channel 0 rank 0 bank 22 row 195 partid 1 0x61d940
row miss channel 0 rank 0 bank 24 row 195 partid 2 0x61e3c0
row miss channel 0 rank 0 bank 6 row 195 partid 1 0x619a40
row miss channel 0 rank 0 bank 19 row 186 partid 1 0x5d4e40
row miss channel 0 rank 0 bank 12 row 140 partid 1 0x463240
row miss channel 0 rank 0 bank 22 row 196 partid 2 0x625840
row miss channel 0 rank 0 bank 23 row 196 partid 2 0x625c00
row miss channel 0 rank 0 bank 11 row 182 partid 1 0x5b2d40
row miss channel 0 rank 0 bank 12 row 197 partid 2 0x62b280
row miss channel 0 rank 0 bank 13 row 197 partid 2 0x62b640
row miss channel 0 rank 0 bank 14 row 197 partid 2 0x62ba00
row miss channel 0 rank 0 bank 17 row 197 partid 2 0x62c540
row miss channel 0 rank 0 bank 19 row 197 partid 2 0x62ccc0
row miss channel 0 rank 0 bank 15 row 141 partid 1 0x46bd80
row miss channel 0 rank 0 bank 5 row 198 partid 2 0x631440
row miss channel 0 rank 0 bank 6 row 198 partid 2 0x631800
row miss channel 0 rank 0 bank 6 row 198 partid 2 0x631bc0
row miss channel 0 rank 0 bank 7 row 198 partid 2 0x631f80
row miss channel 0 rank 0 bank 15 row 198 partid 1 0x633cc0
row miss channel 0 rank 0 bank 19 row 198 partid 2 0x634e80
row miss channel 0 rank 0 bank 2 row 196 partid 1 0x6209c0
row miss channel 0 rank 0 bank 20 row 198 partid 2 0x635240
row miss channel 0 rank 0 bank 21 row 188 partid 1 0x5e5680
row miss channel 0 rank 0 bank 21 row 186 partid 1 0x5d5640
row miss channel 0 rank 0 bank 24 row 198 partid 2 0x636140
row miss channel 0 rank 0 bank 26 row 198 partid 2 0x6368c0
row miss channel 0 rank 0 bank 27 row 198 partid 2 0x636c80
row miss channel 0 rank 0 bank 10 row 181 partid 1 0x5aa900
row miss channel 0 rank 0 bank 0 row 200 partid 2 0x640300
row miss channel 0 rank 0 bank 28 row 198 partid 1 0x637280
row miss channel 0 rank 0 bank 7 row 200 partid 1 0x641d40
row miss channel 0 rank 0 bank 23 row 200 partid 2 0x645d40
row miss channel 0 rank 0 bank 24 row 200 partid 2 0x646100
row miss channel 0 rank 0 bank 18 row 200 partid 1 0x644980
row miss channel 0 rank 0 bank 29 row 200 partid 2 0x647780
row miss channel 0 rank 0 bank 30 row 200 partid 2 0x647b40
row miss channel 0 rank 0 bank 31 row 200 partid 2 0x647f00
row miss channel 0 rank 0 bank 21 row 201 partid 1 0x64d640
row miss channel 0 rank 0 bank 28 row 201 partid 1 0x64f2c0
row miss channel 0 rank 0 bank 31 row 201 partid 1 0x64ff40
row miss channel 0 rank 0 bank 26 row 201 partid 2 0x64e940
row miss channel 0 rank 0 bank 27 row 201 partid 2 0x64ed00
row miss channel 0 rank 0 bank 3 row 202 partid 2 0x650c00
row miss channel 0 rank 0 bank 6 row 202 partid 1 0x651800
row miss channel 0 rank 0 bank 22 row 202 partid 2 0x655b00
row miss channel 0 rank 0 bank 2 row 197 partid 1 0x628a40
row miss channel 0 rank 0 bank 23 row 202 partid 2 0x655ec0
row miss channel 0 rank 0 bank 24 row 202 partid 2 0x656280
row miss channel 0 rank 0 bank 7 row 194 partid 1 0x611dc0
row miss channel 0 rank 0 bank 19 row 202 partid 1 0x654e00
row miss channel 0 rank 0 bank 7 row 203 partid 2 0x659cc0
row miss channel 0 rank 0 bank 18 row 203 partid 2 0x65cbc0
row miss channel 0 rank 0 bank 23 row 203 partid 2 0x65de80
row miss channel 0 rank 0 bank 10 row 171 partid 1 0x55a940
row miss channel 0 rank 0 bank 18 row 204 partid 1 0x664840
row miss channel 0 rank 0 bank 14 row 204 partid 2 0x6638c0
row miss channel 0 rank 0 bank 25 row 204 partid 2 0x6667c0
row miss channel 0 rank 0 bank 9 row 138 partid 1 0x452500
row miss channel 0 rank 0 bank 26 row 204 partid 2 0x666b80
row miss channel 0 rank 0 bank 17 row 205 partid 2 0x66c5c0
row miss channel 0 rank 0 bank 18 row 205 partid 2 0x66c980
row miss channel 0 rank 0 bank 14 row 181 partid 1 0x5ab8c0
row miss channel 0 rank 0 bank 4 row 206 partid 2 0x671100
row miss channel 0 rank 0 bank 2 row 185 partid 1 0x5c8980
row miss channel 0 rank 0 bank 11 row 205 partid 1 0x66ac80
row miss channel 0 rank 0 bank 24 row 206 partid 2 0x676000
row miss channel 0 rank 0 bank 20 row 182 partid 1 0x5b5040
row miss channel 0 rank 0 bank 15 row 206 partid 1 0x673e40
row miss channel 0 rank 0 bank 7 row 174 partid 1 0x571e40
row miss channel 0 rank 0 bank 29 row 206 partid 2 0x677680
row miss channel 0 rank 0 bank 30 row 206 partid 2 0x677a40
row miss channel 0 rank 0 bank 31 row 206 partid 2 0x677e00
row miss channel 0 rank 0 bank 13 row 203 partid 1 0x65b540
row miss channel 0 rank 0 bank 2 row 207 partid 1 0x6789c0
row miss channel 0 rank 0 bank 11 row 207 partid 2 0x67ad00
row miss channel 0 rank 0 bank 20 row 207 partid 2 0x67d0c0
row miss channel 0 rank 0 bank 23 row 207 partid 2 0x67dc00
row miss channel 0 rank 0 bank 24 row 207 partid 1 0x67e180
row miss channel 0 rank 0 bank 27 row 207 partid 1 0x67ee00
row miss channel 0 rank 0 bank 2 row 208 partid 1 0x680a80
row miss channel 0 rank 0 bank 7 row 208 partid 2 0x681dc0
row miss channel 0 rank 0 bank 17 row 189 partid 1 0x5ec700
row miss channel 0 rank 0 bank 28 row 208 partid 2 0x687080
row miss channel 0 rank 0 bank 31 row 208 partid 2 0x687f80
row miss channel 0 rank 0 bank 24 row 209 partid 2 0x68e140
row miss channel 0 rank 0 bank 25 row 209 partid 2 0x68e500
row miss channel 0 rank 0 bank 15 row 210 partid 2 0x693f40
row miss channel 0 rank 0 bank 16 row 210 partid 2 0x694300
row miss channel 0 rank 0 bank 20 row 210 partid 1 0x695200
row miss channel 0 rank 0 bank 23 row 210 partid 1 0x695e80
row miss channel 0 rank 0 bank 26 row 210 partid 1 0x696b00
row miss channel 0 rank 0 bank 30 row 210 partid 2 0x697980
row miss channel 0 rank 0 bank 16 row 211 partid 2 0x69c100
row miss channel 0 rank 0 bank 25 row 205 partid 1 0x66e4c0
row miss channel 0 rank 0 bank 18 row 211 partid 2 0x69c880
row miss channel 0 rank 0 bank 24 row 161 partid 1 0x50e380
row miss channel 0 rank 0 bank 14 row 211 partid 1 0x69b940
row miss channel 0 rank 0 bank 9 row 212 partid 2 0x6a2680
row miss channel 0 rank 0 bank 11 row 212 partid 2 0x6a2e00
row miss channel 0 rank 0 bank 12 row 212 partid 2 0x6a31c0
row miss channel 0 rank 0 bank 6 row 212 partid 1 0x6a1940
row miss channel 0 rank 0 bank 16 row 212 partid 2 0x6a40c0
row miss channel 0 rank 0 bank 17 row 212 partid 2 0x6a4480
row miss channel 0 rank 0 bank 18 row 212 partid 2 0x6a4840
row miss channel 0 rank 0 bank 21 row 156 partid 1 0x4e5480
row miss channel 0 rank 0 bank 19 row 212 partid 2 0x6a4c00
row miss channel 0 rank 0 bank 11 row 203 partid 1 0x65ac80
row miss channel 0 rank 0 bank 1 row 171 partid 1 0x558480
row miss channel 0 rank 0 bank 4 row 213 partid 2 0x6a9380
row miss channel 0 rank 0 bank 5 row 213 partid 2 0x6a9740
row miss channel 0 rank 0 bank 8 row 213 partid 2 0x6aa280
row miss channel 0 rank 0 bank 8 row 211 partid 1 0x69a200
row miss channel 0 rank 0 bank 9 row 213 partid 2 0x6aa640
row miss channel 0 rank 0 bank 12 row 184 partid 1 0x5c3340
row hit channel 0 rank 0 bank 10 row 213 partid 2 0x6aaa00
row miss channel 0 rank 0 bank 2 row 213 partid 1 0x6a8a80
row miss channel 0 rank 0 bank 16 row 213 partid 1 0x6ac280
row miss channel 0 rank 0 bank 19 row 213 partid 1 0x6acf00
row miss channel 0 rank 0 bank 22 row 213 partid 1 0x6adb80
row miss channel 0 rank 0 bank 10 row 214 partid 2 0x6b2bc0
row miss channel 0 rank 0 bank 0 row 195 partid 1 0x618040
row miss channel 0 rank 0 bank 18 row 214 partid 2 0x6b49c0
row miss channel 0 rank 0 bank 5 row 215 partid 2 0x6b9500
row miss channel 0 rank 0 bank 27 row 214 partid 1 0x6b6dc0
row miss channel 0 rank 0 bank 8 row 215 partid 2 0x6ba040
row miss channel 0 rank 0 bank 10 row 215 partid 2 0x6bab80
row miss channel 0 rank 0 bank 12 row 215 partid 1 0x6bb200
row miss channel 0 rank 0 bank 2 row 216 partid 2 0x6c0980
row miss channel 0 rank 0 bank 3 row 216 partid 2 0x6c0d40
row miss channel 0 rank 0 bank 23 row 215 partid 1 0x6bde40
row miss channel 0 rank 0 bank 28 row 175 partid 1 0x57f3c0
row miss channel 0 rank 0 bank 29 row 175 partid 1 0x57f440
row miss channel 0 rank 0 bank 11 row 216 partid 1 0x6c2d40
row miss channel 0 rank 0 bank 26 row 216 partid 1 0x6c6b40
row miss channel 0 rank 0 bank 1 row 217 partid 1 0x6c87c0
row miss channel 0 rank 0 bank 30 row 216 partid 2 0x6c7b40
row miss channel 0 rank 0 bank 4 row 217 partid 2 0x6c92c0
row miss channel 0 rank 0 bank 17 row 216 partid 1 0x6c4500
Exiting @ tick 12858686500 because user interrupt received
