Global frequency set at 1000000000000 ticks per second
gem5 Simulator System.  https://www.gem5.org
gem5 is copyrighted software; use the --copyright option for details.

gem5 version 22.0.0.2
gem5 compiled May  9 2025 16:48:21
gem5 started May  9 2025 16:50:06
gem5 executing on 6858bca1a928, pid 310831
command line: build/X86/gem5.opt configs/example/se.py -n=1 --env=/home/llj/Pivot/mastreeenv.txt --cmd=/home/llj/Tailbench/tailbench/masstree/mttest_gem5se '--options=-j1 mycsba masstree -s1' --cpu-type=X86O3CPU --caches --l2cache --l3cache --l1d_size=64kB --l1d_assoc=4 --l1i_size=64kB --l1i_assoc=4 --l2_size=512kB --l2_assoc=8 --l3_size=4MB --mem-type=DDR5_6400_4x8 --mem-size=16GB

**** REAL SIMULATION ****
TBENCH_MAXREQS = 10000
TBENCH_WARMUPREQS = 1000
TBENCH_MINSLEEPNS = 10000
TBENCH_RANDSEED = 
gem5 test
now 1000000000.003501
finish init 1000000000.003523
populate 0 sz 10000
start bench now 1000000000.013304
ID:0 queue:8070500 server:2699321 sjr:10769821
ID:1 queue:11119398 server:801545 sjr:11920943
ID:2 queue:12447946 server:786364 sjr:13234310
ID:3 queue:13316175 server:813106 sjr:14129281
ID:4 queue:13414374 server:787511 sjr:14201885
ID:5 queue:14506258 server:803385 sjr:15309643
ID:6 queue:15941435 server:783631 sjr:16725066
ID:7 queue:16997100 server:809050 sjr:17806150
ID:8 queue:18452516 server:781488 sjr:19234004
ID:9 queue:19851317 server:783692 sjr:20635009
ID:10 queue:20703825 server:783719 sjr:21487544
ID:11 queue:20804197 server:793836 sjr:21598033
ID:12 queue:21872849 server:774688 sjr:22647537
ID:13 queue:22766589 server:795521 sjr:23562110
ID:14 queue:23607279 server:774459 sjr:24381738
ID:15 queue:24312636 server:795366 sjr:25108002
ID:16 queue:25733788 server:767067 sjr:26500855
ID:17 queue:26959477 server:789184 sjr:27748661
ID:18 queue:27693166 server:763116 sjr:28456282
ID:19 queue:28880073 server:780876 sjr:29660949
ID:20 queue:28289590 server:765128 sjr:29054718
ID:21 queue:29006946 server:782182 sjr:29789128
ID:22 queue:30405848 server:755823 sjr:31161671
ID:23 queue:30735224 server:785178 sjr:31520402
ID:24 queue:31887948 server:759007 sjr:32646955
ID:25 queue:32976162 server:778770 sjr:33754932
ID:26 queue:34248252 server:752588 sjr:35000840
ID:27 queue:35564610 server:773051 sjr:36337661
ID:28 queue:35851634 server:759301 sjr:36610935
ID:29 queue:37233260 server:776350 sjr:38009610
ID:30 queue:38312110 server:751742 sjr:39063852
ID:31 queue:39525483 server:765532 sjr:40291015
ID:32 queue:40602830 server:754339 sjr:41357169
ID:33 queue:41966631 server:776132 sjr:42742763
ID:34 queue:43356551 server:749236 sjr:44105787
ID:35 queue:44515571 server:770746 sjr:45286317
ID:36 queue:44714121 server:756775 sjr:45470896
ID:37 queue:45810852 server:778095 sjr:46588947
ID:38 queue:47216530 server:746414 sjr:47962944
ID:39 queue:47880478 server:770187 sjr:48650665
ID:40 queue:49235625 server:744356 sjr:49979981
ID:41 queue:50048351 server:766574 sjr:50814925
ID:42 queue:50968650 server:748166 sjr:51716816
ID:43 queue:51721135 server:765750 sjr:52486885
ID:44 queue:52041367 server:749416 sjr:52790783
ID:45 queue:53258714 server:765134 sjr:54023848
ID:46 queue:54313925 server:753885 sjr:55067810
ID:47 queue:54783424 server:768239 sjr:55551663
ID:48 queue:55281720 server:745936 sjr:56027656
ID:49 queue:56411326 server:766302 sjr:57177628
ID:50 queue:57515192 server:746882 sjr:58262074
ID:51 queue:58815895 server:770404 sjr:59586299
ID:52 queue:59815400 server:754414 sjr:60569814
ID:53 queue:61206460 server:769130 sjr:61975590
ID:54 queue:62282892 server:751349 sjr:63034241
ID:55 queue:62996862 server:769920 sjr:63766782
ID:56 queue:63312525 server:747936 sjr:64060461
ID:57 queue:63790255 server:767170 sjr:64557425
ID:58 queue:65091119 server:746607 sjr:65837726
ID:59 queue:66417994 server:770286 sjr:67188280
ID:60 queue:67677534 server:750052 sjr:68427586
ID:61 queue:68810069 server:767487 sjr:69577556
ID:62 queue:69610685 server:753441 sjr:70364126
ID:63 queue:70878833 server:767318 sjr:71646151
ID:64 queue:72106558 server:751373 sjr:72857931
ID:65 queue:72989230 server:766928 sjr:73756158
ID:66 queue:73837126 server:751861 sjr:74588987
ID:67 queue:74993943 server:769785 sjr:75763728
ID:68 queue:76336885 server:753534 sjr:77090419
ID:69 queue:76809872 server:769950 sjr:77579822
ID:70 queue:76678332 server:747455 sjr:77425787
ID:71 queue:77997764 server:771406 sjr:78769170
ID:72 queue:79158904 server:753822 sjr:79912726
ID:73 queue:80149306 server:769819 sjr:80919125
ID:74 queue:81236210 server:757174 sjr:81993384
ID:75 queue:81021472 server:774272 sjr:81795744
ID:76 queue:82335928 server:755144 sjr:83091072
ID:77 queue:83245550 server:768746 sjr:84014296
ID:78 queue:84140060 server:752292 sjr:84892352
ID:79 queue:84732511 server:764714 sjr:85497225
ID:80 queue:85826626 server:750922 sjr:86577548
ID:81 queue:87115437 server:767399 sjr:87882836
ID:82 queue:87376146 server:749229 sjr:88125375
ID:83 queue:88701515 server:768237 sjr:89469752
ID:84 queue:89858042 server:748959 sjr:90607001
ID:85 queue:90173905 server:773900 sjr:90947805
ID:86 queue:91510571 server:752068 sjr:92262639
ID:87 queue:92688596 server:764276 sjr:93452872
ID:88 queue:94031736 server:752127 sjr:94783863
ID:89 queue:95132558 server:774763 sjr:95907321
ID:90 queue:96259035 server:751427 sjr:97010462
ID:91 queue:96320713 server:773868 sjr:97094581
ID:92 queue:97624735 server:751130 sjr:98375865
ID:93 queue:97828923 server:771454 sjr:98600377
ID:94 queue:98266402 server:779777 sjr:99046179
ID:95 queue:99346072 server:770688 sjr:100116760
ID:96 queue:99918802 server:749107 sjr:100667909
ID:97 queue:101011673 server:762302 sjr:101773975
ID:98 queue:101924232 server:748576 sjr:102672808
ID:99 queue:102453959 server:797624 sjr:103251583
ID:100 queue:103296996 server:748700 sjr:104045696
ID:101 queue:103151041 server:763640 sjr:103914681
ID:102 queue:104394229 server:743388 sjr:105137617
ID:103 queue:105426689 server:770332 sjr:106197021
ID:104 queue:106579820 server:777273 sjr:107357093
ID:105 queue:106962389 server:765226 sjr:107727615
ID:106 queue:107724113 server:745542 sjr:108469655
ID:107 queue:108491099 server:767888 sjr:109258987
ID:108 queue:109297934 server:753494 sjr:110051428
ID:109 queue:110694090 server:766288 sjr:111460378
ID:110 queue:111739408 server:772642 sjr:112512050
ID:111 queue:113129212 server:765219 sjr:113894431
ID:112 queue:114209199 server:749418 sjr:114958617
ID:113 queue:115036424 server:769963 sjr:115806387
ID:114 queue:115214826 server:749309 sjr:115964135
ID:115 queue:115510844 server:791020 sjr:116301864
ID:116 queue:116877288 server:752103 sjr:117629391
ID:117 queue:116008913 server:767685 sjr:116776598
ID:118 queue:117132943 server:744720 sjr:117877663
ID:119 queue:118167758 server:765328 sjr:118933086
ID:120 queue:119294402 server:771688 sjr:120066090
ID:121 queue:119896617 server:768393 sjr:120665010
ID:122 queue:121199467 server:745612 sjr:121945079
ID:123 queue:122514734 server:767762 sjr:123282496
ID:124 queue:123455797 server:749826 sjr:124205623
ID:125 queue:124858373 server:795261 sjr:125653634
ID:126 queue:125657111 server:741764 sjr:126398875
ID:127 queue:126780713 server:766548 sjr:127547261
ID:128 queue:127628872 server:745377 sjr:128374249
ID:129 queue:128132381 server:766109 sjr:128898490
ID:130 queue:128669151 server:749410 sjr:129418561
ID:131 queue:130027329 server:2362582 sjr:132389911
ID:132 queue:132546561 server:776694 sjr:133323255
ID:133 queue:133856491 server:790748 sjr:134647239
ID:134 queue:135055462 server:783101 sjr:135838563
ID:135 queue:135018062 server:790285 sjr:135808347
ID:136 queue:136305993 server:773877 sjr:137079870
ID:137 queue:137567320 server:795521 sjr:138362841
ID:138 queue:138251472 server:784514 sjr:139035986
ID:139 queue:139524183 server:786875 sjr:140311058
ID:140 queue:140959185 server:777070 sjr:141736255
ID:141 queue:140347024 server:793002 sjr:141140026
ID:142 queue:140938353 server:783165 sjr:141721518
ID:143 queue:142122336 server:789989 sjr:142912325
ID:144 queue:143471231 server:772645 sjr:144243876
ID:145 queue:144812265 server:790404 sjr:145602669
ID:146 queue:146109308 server:773615 sjr:146882923
ID:147 queue:147484017 server:794055 sjr:148278072
ID:148 queue:148429036 server:767673 sjr:149196709
ID:149 queue:149058499 server:791944 sjr:149850443
ID:150 queue:149806244 server:772118 sjr:150578362
ID:151 queue:150731585 server:786290 sjr:151517875
ID:152 queue:151716733 server:768870 sjr:152485603
ID:153 queue:152948607 server:785524 sjr:153734131
ID:154 queue:154325586 server:766882 sjr:155092468
ID:155 queue:155372946 server:782455 sjr:156155401
ID:156 queue:156364849 server:760358 sjr:157125207
ID:157 queue:157170745 server:773098 sjr:157943843
ID:158 queue:158507294 server:748907 sjr:159256201
ID:159 queue:158925936 server:772315 sjr:159698251
ID:160 queue:159944432 server:755399 sjr:160699831
ID:161 queue:161162891 server:772068 sjr:161934959
ID:162 queue:162212315 server:754043 sjr:162966358
ID:163 queue:163175839 server:773643 sjr:163949482
ID:164 queue:164321042 server:757340 sjr:165078382
ID:165 queue:165501526 server:766991 sjr:166268517
ID:166 queue:166625543 server:750827 sjr:167376370
ID:167 queue:167783737 server:767553 sjr:168551290
ID:168 queue:169163256 server:755510 sjr:169918766
ID:169 queue:170425846 server:775760 sjr:171201606
ID:170 queue:171289140 server:752536 sjr:172041676
ID:171 queue:172039169 server:768702 sjr:172807871
ID:172 queue:172010136 server:754072 sjr:172764208
ID:173 queue:172007699 server:774224 sjr:172781923
ID:174 queue:173126008 server:754119 sjr:173880127
ID:175 queue:173990651 server:771168 sjr:174761819
ID:176 queue:174947428 server:753598 sjr:175701026
ID:177 queue:176270825 server:774976 sjr:177045801
ID:178 queue:177487660 server:755728 sjr:178243388
ID:179 queue:178524094 server:768949 sjr:179293043
ID:180 queue:179937183 server:749013 sjr:180686196
ID:181 queue:180823128 server:778214 sjr:181601342
ID:182 queue:181004181 server:755067 sjr:181759248
ID:183 queue:180656593 server:767522 sjr:181424115
ID:184 queue:181146490 server:755801 sjr:181902291
ID:185 queue:182249368 server:775261 sjr:183024629
ID:186 queue:183665165 server:753904 sjr:184419069
ID:187 queue:184456706 server:772815 sjr:185229521
ID:188 queue:185594593 server:751052 sjr:186345645
ID:189 queue:186301153 server:775232 sjr:187076385
ID:190 queue:187133380 server:751820 sjr:187885200
ID:191 queue:187836371 server:775363 sjr:188611734
ID:192 queue:189260947 server:755302 sjr:190016249
ID:193 queue:190625924 server:771892 sjr:191397816
ID:194 queue:190881566 server:756361 sjr:191637927
ID:195 queue:191603020 server:775018 sjr:192378038
ID:196 queue:193025477 server:747172 sjr:193772649
ID:197 queue:194058963 server:769068 sjr:194828031
ID:198 queue:195086294 server:749439 sjr:195835733
ID:199 queue:196366534 server:769710 sjr:197136244
ID:200 queue:197295547 server:752738 sjr:198048285
ID:201 queue:198083737 server:767127 sjr:198850864
ID:202 queue:199337667 server:750814 sjr:200088481
ID:203 queue:200508253 server:772027 sjr:201280280
ID:204 queue:201746796 server:745065 sjr:202491861
ID:205 queue:203089734 server:768426 sjr:203858160
ID:206 queue:203761799 server:748151 sjr:204509950
ID:207 queue:205133356 server:770656 sjr:205904012
ID:208 queue:206468047 server:756036 sjr:207224083
ID:209 queue:207699504 server:769820 sjr:208469324
ID:210 queue:208794413 server:751098 sjr:209545511
ID:211 queue:209829394 server:771438 sjr:210600832
ID:212 queue:211170602 server:756873 sjr:211927475
ID:213 queue:211683427 server:771400 sjr:212454827
ID:214 queue:212675518 server:751977 sjr:213427495
ID:215 queue:213877382 server:772399 sjr:214649781
ID:216 queue:213133438 server:757138 sjr:213890576
ID:217 queue:214541964 server:769880 sjr:215311844
ID:218 queue:215948045 server:750880 sjr:216698925
ID:219 queue:217014428 server:767325 sjr:217781753
ID:220 queue:217762530 server:758902 sjr:218521432
ID:221 queue:218789515 server:772605 sjr:219562120
ID:222 queue:220148801 server:748674 sjr:220897475
ID:223 queue:221444620 server:772575 sjr:222217195
ID:224 queue:222391955 server:757495 sjr:223149450
ID:225 queue:223733455 server:772016 sjr:224505471
ID:226 queue:223617571 server:754917 sjr:224372488
ID:227 queue:224114957 server:769023 sjr:224883980
ID:228 queue:225385930 server:753310 sjr:226139240
ID:229 queue:226515427 server:770967 sjr:227286394
ID:230 queue:226796756 server:756758 sjr:227553514
ID:231 queue:227490468 server:775384 sjr:228265852
ID:232 queue:228616790 server:754068 sjr:229370858
ID:233 queue:229475592 server:771082 sjr:230246674
ID:234 queue:230780432 server:754176 sjr:231534608
ID:235 queue:231789872 server:766812 sjr:232556684
ID:236 queue:233111861 server:749371 sjr:233861232
ID:237 queue:234230344 server:767868 sjr:234998212
ID:238 queue:235068348 server:752570 sjr:235820918
ID:239 queue:235568198 server:768910 sjr:236337108
ID:240 queue:235176744 server:749616 sjr:235926360
ID:241 queue:236536403 server:769824 sjr:237306227
ID:242 queue:237224834 server:754947 sjr:237979781
ID:243 queue:238488414 server:764800 sjr:239253214
ID:244 queue:239173119 server:750177 sjr:239923296
ID:245 queue:239883730 server:767917 sjr:240651647
ID:246 queue:240731156 server:753787 sjr:241484943
ID:247 queue:242115844 server:774365 sjr:242890209
ID:248 queue:243415245 server:753655 sjr:244168900
ID:249 queue:244290153 server:769210 sjr:245059363
ID:250 queue:245477667 server:751325 sjr:246228992
ID:251 queue:246748505 server:771470 sjr:247519975
ID:252 queue:248082421 server:753831 sjr:248836252
ID:253 queue:249400864 server:769493 sjr:250170357
ID:254 queue:250280095 server:752700 sjr:251032795
ID:255 queue:250195274 server:772149 sjr:250967423
ID:256 queue:251134227 server:753759 sjr:251887986
ID:257 queue:252552497 server:771074 sjr:253323571
ID:258 queue:253335450 server:750380 sjr:254085830
ID:259 queue:254709942 server:772425 sjr:255482367
ID:260 queue:255767767 server:752814 sjr:256520581
ID:261 queue:257138154 server:766825 sjr:257904979
ID:262 queue:256665858 server:754343 sjr:257420201
ID:263 queue:257871049 server:770199 sjr:258641248
ID:264 queue:258612804 server:756582 sjr:259369386
ID:265 queue:259927643 server:771533 sjr:260699176
ID:266 queue:259947319 server:752799 sjr:260700118
ID:267 queue:261204272 server:771668 sjr:261975940
ID:268 queue:262560536 server:751980 sjr:263312516
ID:269 queue:263875952 server:776080 sjr:264652032
ID:270 queue:265248446 server:757667 sjr:266006113
ID:271 queue:266427416 server:774500 sjr:267201916
ID:272 queue:267654614 server:751062 sjr:268405676
ID:273 queue:268627289 server:769439 sjr:269396728
ID:274 queue:269339859 server:748046 sjr:270087905
ID:275 queue:270138641 server:796965 sjr:270935606
ID:276 queue:270220184 server:746589 sjr:270966773
ID:277 queue:271394466 server:766456 sjr:272160922
ID:278 queue:272509434 server:746922 sjr:273256356
ID:279 queue:273770709 server:765342 sjr:274536051
ID:280 queue:274914216 server:777480 sjr:275691696
ID:281 queue:276173392 server:769176 sjr:276942568
ID:282 queue:277472113 server:741293 sjr:278213406
ID:283 queue:278490267 server:765099 sjr:279255366
ID:284 queue:278911696 server:745909 sjr:279657605
ID:285 queue:279687950 server:792627 sjr:280480577
ID:286 queue:280890263 server:751917 sjr:281642180
ID:287 queue:281985090 server:767251 sjr:282752341
ID:288 queue:282609345 server:748208 sjr:283357553
ID:289 queue:284006820 server:765664 sjr:284772484
ID:290 queue:284878398 server:778140 sjr:285656538
ID:291 queue:286205599 server:769185 sjr:286974784
ID:292 queue:287554645 server:747061 sjr:288301706
ID:293 queue:287493859 server:767116 sjr:288260975
ID:294 queue:288447637 server:748889 sjr:289196526
ID:295 queue:289634024 server:766886 sjr:290400910
ID:296 queue:290694897 server:775951 sjr:291470848
ID:297 queue:291222995 server:765408 sjr:291988403
ID:298 queue:292440713 server:748367 sjr:293189080
ID:299 queue:293341211 server:769547 sjr:294110758
ID:300 queue:294741929 server:745042 sjr:295486971
ID:301 queue:295409918 server:800688 sjr:296210606
ID:302 queue:296495257 server:750294 sjr:297245551
ID:303 queue:297773521 server:766990 sjr:298540511
ID:304 queue:299146443 server:750341 sjr:299896784
ID:305 queue:299936963 server:765366 sjr:300702329
ID:306 queue:301203135 server:779213 sjr:301982348
ID:307 queue:302396167 server:769760 sjr:303165927
ID:308 queue:303685969 server:748260 sjr:304434229
ID:309 queue:304769465 server:771310 sjr:305540775
ID:310 queue:304301339 server:753376 sjr:305054715
ID:311 queue:305689105 server:767614 sjr:306456719
ID:312 queue:307093253 server:775082 sjr:307868335
ID:313 queue:308073574 server:765269 sjr:308838843
ID:314 queue:309290932 server:742127 sjr:310033059
ID:315 queue:310301121 server:765648 sjr:311066769
ID:316 queue:311460655 server:748532 sjr:312209187
ID:317 queue:311156478 server:791713 sjr:311948191
ID:318 queue:311589335 server:746506 sjr:312335841
ID:319 queue:312906821 server:766932 sjr:313673753
ID:320 queue:313814545 server:751886 sjr:314566431
ID:321 queue:313875267 server:765682 sjr:314640949
ID:322 queue:314448372 server:774705 sjr:315223077
ID:323 queue:315450421 server:767694 sjr:316218115
ID:324 queue:315417471 server:748518 sjr:316165989
ID:325 queue:316733704 server:769225 sjr:317502929
ID:326 queue:317944507 server:748924 sjr:318693431
ID:327 queue:319293938 server:792112 sjr:320086050
ID:328 queue:320725429 server:747238 sjr:321472667
ID:329 queue:321151908 server:768042 sjr:321919950
ID:330 queue:322011157 server:749683 sjr:322760840
ID:331 queue:322813481 server:764480 sjr:323577961
ID:332 queue:324122437 server:746281 sjr:324868718
ID:333 queue:325307373 server:793492 sjr:326100865
ID:334 queue:326675692 server:746286 sjr:327421978
ID:335 queue:327947538 server:770653 sjr:328718191
ID:336 queue:328929035 server:748769 sjr:329677804
ID:337 queue:330315437 server:769517 sjr:331084954
ID:338 queue:331017509 server:774989 sjr:331792498
ID:339 queue:332405056 server:765966 sjr:333171022
ID:340 queue:332524272 server:753280 sjr:333277552
ID:341 queue:333645410 server:770078 sjr:334415488
ID:342 queue:334177526 server:746477 sjr:334924003
ID:343 queue:335115353 server:791952 sjr:335907305
ID:344 queue:336192698 server:745416 sjr:336938114
ID:345 queue:337502984 server:774236 sjr:338277220
ID:346 queue:338502241 server:748228 sjr:339250469
ID:347 queue:339524062 server:765606 sjr:340289668
ID:348 queue:340391864 server:753062 sjr:341144926
ID:349 queue:341399390 server:798969 sjr:342198359
ID:350 queue:342299438 server:748057 sjr:343047495
ID:351 queue:343276249 server:768955 sjr:344045204
ID:352 queue:344406947 server:746518 sjr:345153465
ID:353 queue:345456915 server:763965 sjr:346220880
ID:354 queue:346856308 server:773552 sjr:347629860
ID:355 queue:347912870 server:766967 sjr:348679837
ID:356 queue:349314622 server:748905 sjr:350063527
ID:357 queue:350658108 server:763683 sjr:351421791
ID:358 queue:351671216 server:747797 sjr:352419013
ID:359 queue:352597906 server:797123 sjr:353395029
ID:360 queue:353308479 server:745441 sjr:354053920
ID:361 queue:354373596 server:767521 sjr:355141117
ID:362 queue:355197303 server:746889 sjr:355944192
ID:363 queue:356263064 server:765693 sjr:357028757
ID:364 queue:357061804 server:777627 sjr:357839431
ID:365 queue:358329705 server:770785 sjr:359100490
ID:366 queue:359586822 server:748012 sjr:360334834
ID:367 queue:360607441 server:766938 sjr:361374379
ID:368 queue:361892408 server:750419 sjr:362642827
ID:369 queue:362840453 server:768245 sjr:363608698
ID:370 queue:362996556 server:772815 sjr:363769371
ID:371 queue:363560018 server:765477 sjr:364325495
ID:372 queue:364844864 server:751258 sjr:365596122
ID:373 queue:365097988 server:765774 sjr:365863762
ID:374 queue:365987553 server:749983 sjr:366737536
ID:375 queue:366015168 server:793742 sjr:366808910
ID:376 queue:366480539 server:749590 sjr:367230129
ID:377 queue:366360047 server:766262 sjr:367126309
ID:378 queue:367714168 server:745219 sjr:368459387
ID:379 queue:368504249 server:770713 sjr:369274962
ID:380 queue:369867724 server:778695 sjr:370646419
ID:381 queue:371244547 server:769471 sjr:372014018
ID:382 queue:372454160 server:746698 sjr:373200858
ID:383 queue:373144009 server:764243 sjr:373908252
ID:384 queue:374359008 server:752915 sjr:375111923
ID:385 queue:375338457 server:769341 sjr:376107798
ID:386 queue:376646854 server:776071 sjr:377422925
ID:387 queue:376243986 server:771654 sjr:377015640
ID:388 queue:377328871 server:755065 sjr:378083936
ID:389 queue:377918855 server:767908 sjr:378686763
ID:390 queue:379251884 server:750009 sjr:380001893
ID:391 queue:380573215 server:793096 sjr:381366311
ID:392 queue:381778955 server:741491 sjr:382520446
ID:393 queue:382897477 server:765425 sjr:383662902
ID:394 queue:383787453 server:747397 sjr:384534850
ID:395 queue:385155638 server:766321 sjr:385921959
ID:396 queue:385433557 server:771759 sjr:386205316
ID:397 queue:385698558 server:768923 sjr:386467481
ID:398 queue:387025610 server:751816 sjr:387777426
ID:399 queue:388413505 server:763687 sjr:389177192
ID:400 queue:389460025 server:746856 sjr:390206881
ID:401 queue:390697891 server:791548 sjr:391489439
ID:402 queue:391699673 server:748219 sjr:392447892
ID:403 queue:392264815 server:769226 sjr:393034041
ID:404 queue:392279179 server:750561 sjr:393029740
ID:405 queue:393248280 server:769422 sjr:394017702
ID:406 queue:393605522 server:745839 sjr:394351361
ID:407 queue:394898487 server:798025 sjr:395696512
ID:408 queue:395714310 server:748105 sjr:396462415
ID:409 queue:397076390 server:766817 sjr:397843207
ID:410 queue:397438009 server:746553 sjr:398184562
ID:411 queue:398787451 server:769934 sjr:399557385
ID:412 queue:399938861 server:773879 sjr:400712740
ID:413 queue:400802027 server:769744 sjr:401571771
ID:414 queue:401385198 server:748275 sjr:402133473
ID:415 queue:402050331 server:770574 sjr:402820905
ID:416 queue:402339124 server:749704 sjr:403088828
ID:417 queue:403408376 server:790778 sjr:404199154
ID:418 queue:404613568 server:751298 sjr:405364866
ID:419 queue:405433704 server:771749 sjr:406205453
ID:420 queue:406816987 server:751951 sjr:407568938
ID:421 queue:407895085 server:765377 sjr:408660462
ID:422 queue:409176309 server:744546 sjr:409920855
ID:423 queue:408710362 server:797278 sjr:409507640
ID:424 queue:409588822 server:750680 sjr:410339502
ID:425 queue:410766795 server:769440 sjr:411536235
ID:426 queue:411398408 server:746553 sjr:412144961
ID:427 queue:412758278 server:776431 sjr:413534709
ID:428 queue:413855832 server:777581 sjr:414633413
ID:429 queue:414938787 server:768074 sjr:415706861
ID:430 queue:415008807 server:746404 sjr:415755211
ID:431 queue:416328096 server:764333 sjr:417092429
ID:432 queue:417702237 server:746301 sjr:418448538
ID:433 queue:418837576 server:794027 sjr:419631603
ID:434 queue:418632528 server:748305 sjr:419380833
ID:435 queue:419922853 server:763048 sjr:420685901
ID:436 queue:421227566 server:746823 sjr:421974389
ID:437 queue:422198232 server:771604 sjr:422969836
ID:438 queue:423181086 server:772795 sjr:423953881
ID:439 queue:424376545 server:763981 sjr:425140526
ID:440 queue:425334786 server:746574 sjr:426081360
ID:441 queue:426653129 server:766631 sjr:427419760
ID:442 queue:425381166 server:746508 sjr:426127674
ID:443 queue:426520724 server:770191 sjr:427290915
ID:444 queue:427086920 server:775583 sjr:427862503
ID:445 queue:428280505 server:765562 sjr:429046067
ID:446 queue:429371369 server:749562 sjr:430120931
ID:447 queue:430252350 server:769763 sjr:431022113
ID:448 queue:430871363 server:747171 sjr:431618534
ID:449 queue:432048471 server:791384 sjr:432839855
ID:450 queue:433286502 server:748987 sjr:434035489
ID:451 queue:434609029 server:765790 sjr:435374819
ID:452 queue:435475875 server:750603 sjr:436226478
ID:453 queue:436689187 server:767410 sjr:437456597
ID:454 queue:437646757 server:779722 sjr:438426479
ID:455 queue:437809889 server:769543 sjr:438579432
ID:456 queue:438867958 server:747360 sjr:439615318
ID:457 queue:440114045 server:770421 sjr:440884466
ID:458 queue:440638408 server:752332 sjr:441390740
ID:459 queue:441539132 server:798359 sjr:442337491
ID:460 queue:442682789 server:747563 sjr:443430352
ID:461 queue:443997340 server:762163 sjr:444759503
ID:462 queue:444863109 server:751721 sjr:445614830
ID:463 queue:445475498 server:772331 sjr:446247829
ID:464 queue:446730267 server:749298 sjr:447479565
ID:465 queue:447939674 server:793527 sjr:448733201
ID:466 queue:448750393 server:755269 sjr:449505662
ID:467 queue:450025993 server:769991 sjr:450795984
ID:468 queue:451214432 server:747512 sjr:451961944
ID:469 queue:452576156 server:764460 sjr:453340616
ID:470 queue:453574678 server:770397 sjr:454345075
ID:471 queue:454722201 server:768357 sjr:455490558
ID:472 queue:455967202 server:749666 sjr:456716868
ID:473 queue:457147523 server:767950 sjr:457915473
ID:474 queue:458123141 server:745315 sjr:458868456
ID:475 queue:459208855 server:790795 sjr:459999650
ID:476 queue:459206850 server:750193 sjr:459957043
ID:477 queue:460583597 server:766695 sjr:461350292
ID:478 queue:461549253 server:745234 sjr:462294487
ID:479 queue:461948686 server:763819 sjr:462712505
ID:480 queue:463309429 server:745785 sjr:464055214
ID:481 queue:463812013 server:793179 sjr:464605192
ID:482 queue:464718692 server:750152 sjr:465468844
ID:483 queue:466112269 server:765199 sjr:466877468
ID:484 queue:467421739 server:744916 sjr:468166655
ID:485 queue:468448049 server:769965 sjr:469218014
ID:486 queue:469233561 server:774912 sjr:470008473
ID:487 queue:469752878 server:767078 sjr:470519956
ID:488 queue:470631928 server:745539 sjr:471377467
ID:489 queue:471513444 server:769115 sjr:472282559
ID:490 queue:472551770 server:749301 sjr:473301071
ID:491 queue:473756751 server:795848 sjr:474552599
ID:492 queue:474911426 server:746639 sjr:475658065
ID:493 queue:476148101 server:772335 sjr:476920436
ID:494 queue:477510751 server:751848 sjr:478262599
ID:495 queue:478009364 server:766205 sjr:478775569
ID:496 queue:479225654 server:779294 sjr:480004948
ID:497 queue:480272622 server:769374 sjr:481041996
ID:498 queue:480365083 server:751457 sjr:481116540
ID:499 queue:481628652 server:770818 sjr:482399470
ID:500 queue:482597172 server:742407 sjr:483339579
ID:501 queue:483850328 server:770723 sjr:484621051
ID:502 queue:485164479 server:777970 sjr:485942449
ID:503 queue:485690732 server:772190 sjr:486462922
ID:504 queue:486627179 server:750553 sjr:487377732
ID:505 queue:487472904 server:773196 sjr:488246100
ID:506 queue:487873292 server:752899 sjr:488626191
ID:507 queue:489217189 server:792741 sjr:490009930
ID:508 queue:490097729 server:747191 sjr:490844920
ID:509 queue:491192935 server:761140 sjr:491954075
ID:510 queue:492589236 server:749668 sjr:493338904
ID:511 queue:493023158 server:769128 sjr:493792286
ID:512 queue:493903159 server:774356 sjr:494677515
ID:513 queue:495339931 server:764017 sjr:496103948
ID:514 queue:496591758 server:746039 sjr:497337797
ID:515 queue:497892847 server:770181 sjr:498663028
ID:516 queue:498176190 server:744567 sjr:498920757
ID:517 queue:499120932 server:765040 sjr:499885972
ID:518 queue:499950883 server:744232 sjr:500695115
ID:519 queue:500926072 server:765295 sjr:501691367
ID:520 queue:502058755 server:746098 sjr:502804853
ID:521 queue:503343640 server:770793 sjr:504114433
ID:522 queue:504607204 server:752973 sjr:505360177
ID:523 queue:505869833 server:768801 sjr:506638634
ID:524 queue:506965908 server:755444 sjr:507721352
ID:525 queue:506744947 server:771436 sjr:507516383
ID:526 queue:508044892 server:751562 sjr:508796454
ID:527 queue:508684660 server:772382 sjr:509457042
ID:528 queue:508498784 server:752754 sjr:509251538
ID:529 queue:509476519 server:774960 sjr:510251479
ID:530 queue:510833214 server:753932 sjr:511587146
ID:531 queue:511891152 server:771305 sjr:512662457
ID:532 queue:512963346 server:757877 sjr:513721223
ID:533 queue:514310668 server:773151 sjr:515083819
ID:534 queue:515183198 server:754161 sjr:515937359
ID:535 queue:516344721 server:770264 sjr:517114985
ID:536 queue:516877419 server:753836 sjr:517631255
ID:537 queue:518217580 server:775001 sjr:518992581
ID:538 queue:519122018 server:755610 sjr:519877628
ID:539 queue:519585254 server:769137 sjr:520354391
ID:540 queue:520951116 server:754125 sjr:521705241
ID:541 queue:522133827 server:775231 sjr:522909058
ID:542 queue:522926703 server:754504 sjr:523681207
ID:543 queue:523898563 server:776112 sjr:524674675
ID:544 queue:525241126 server:756194 sjr:525997320
ID:545 queue:526556758 server:772383 sjr:527329141
ID:546 queue:527423955 server:752238 sjr:528176193
ID:547 queue:527739514 server:769551 sjr:528509065
ID:548 queue:528952069 server:748354 sjr:529700423
ID:549 queue:529750726 server:772647 sjr:530523373
ID:550 queue:530389366 server:751198 sjr:531140564
ID:551 queue:531626854 server:768305 sjr:532395159
ID:552 queue:532953703 server:748478 sjr:533702181
ID:553 queue:534316141 server:767509 sjr:535083650
ID:554 queue:535041998 server:752231 sjr:535794229
ID:555 queue:536355423 server:768662 sjr:537124085
ID:556 queue:537034187 server:748587 sjr:537782774
ID:557 queue:538150438 server:767846 sjr:538918284
ID:558 queue:538245001 server:751600 sjr:538996601
ID:559 queue:539493876 server:771912 sjr:540265788
ID:560 queue:540129901 server:755695 sjr:540885596
ID:561 queue:541417043 server:769421 sjr:542186464
ID:562 queue:542596685 server:750304 sjr:543346989
ID:563 queue:542679292 server:773680 sjr:543452972
ID:564 queue:543625181 server:756195 sjr:544381376
ID:565 queue:544813013 server:2351473 sjr:547164486
ID:566 queue:547707508 server:776572 sjr:548484080
ID:567 queue:548353924 server:793590 sjr:549147514
ID:568 queue:549791449 server:790276 sjr:550581725
ID:569 queue:551173572 server:790535 sjr:551964107
ID:570 queue:552085564 server:779283 sjr:552864847
ID:571 queue:553277184 server:792436 sjr:554069620
ID:572 queue:554522599 server:778920 sjr:555301519
ID:573 queue:554727010 server:791800 sjr:555518810
ID:574 queue:555923693 server:779108 sjr:556702801
ID:575 queue:556466165 server:792978 sjr:557259143
ID:576 queue:557844708 server:773729 sjr:558618437
ID:577 queue:557849212 server:794344 sjr:558643556
ID:578 queue:559080798 server:768991 sjr:559849789
ID:579 queue:560079895 server:794060 sjr:560873955
ID:580 queue:560599202 server:773133 sjr:561372335
ID:581 queue:561177970 server:790656 sjr:561968626
ID:582 queue:562337499 server:769937 sjr:563107436
ID:583 queue:563547262 server:793975 sjr:564341237
ID:584 queue:563738022 server:771418 sjr:564509440
ID:585 queue:564480812 server:780803 sjr:565261615
ID:586 queue:565166809 server:759116 sjr:565925925
ID:587 queue:566104669 server:773969 sjr:566878638
ID:588 queue:567343650 server:756638 sjr:568100288
ID:589 queue:568687527 server:775395 sjr:569462922
ID:590 queue:570043746 server:758549 sjr:570802295
ID:591 queue:571387450 server:772638 sjr:572160088
ID:592 queue:572118129 server:753859 sjr:572871988
ID:593 queue:573217890 server:777145 sjr:573995035
ID:594 queue:574515545 server:754276 sjr:575269821
ID:595 queue:575347623 server:772204 sjr:576119827
ID:596 queue:575810531 server:752319 sjr:576562850
ID:597 queue:577151985 server:769425 sjr:577921410
ID:598 queue:577132187 server:754922 sjr:577887109
ID:599 queue:578510052 server:776555 sjr:579286607
ID:600 queue:579864387 server:752625 sjr:580617012
ID:601 queue:581142213 server:774103 sjr:581916316
ID:602 queue:582111898 server:753249 sjr:582865147
ID:603 queue:583490851 server:770470 sjr:584261321
ID:604 queue:584076074 server:751408 sjr:584827482
ID:605 queue:585461472 server:768582 sjr:586230054
ID:606 queue:585046310 server:756177 sjr:585802487
ID:607 queue:585896617 server:773398 sjr:586670015
ID:608 queue:587184037 server:750701 sjr:587934738
ID:609 queue:588139581 server:768997 sjr:588908578
ID:610 queue:589429349 server:751823 sjr:590181172
ID:611 queue:590535630 server:772795 sjr:591308425
ID:612 queue:590609017 server:750477 sjr:591359494
ID:613 queue:591651379 server:769887 sjr:592421266
ID:614 queue:592090586 server:755791 sjr:592846377
ID:615 queue:593026580 server:775121 sjr:593801701
ID:616 queue:593964110 server:753933 sjr:594718043
ID:617 queue:594852451 server:765276 sjr:595617727
ID:618 queue:596256319 server:753839 sjr:597010158
ID:619 queue:597545904 server:771825 sjr:598317729
ID:620 queue:598559084 server:755006 sjr:599314090
ID:621 queue:599901990 server:770714 sjr:600672704
ID:622 queue:601250940 server:760139 sjr:602011079
ID:623 queue:602271706 server:775092 sjr:603046798
ID:624 queue:602611397 server:755244 sjr:603366641
ID:625 queue:603794470 server:770796 sjr:604565266
ID:626 queue:605039611 server:747861 sjr:605787472
ID:627 queue:605218353 server:768875 sjr:605987228
ID:628 queue:604880086 server:751690 sjr:605631776
ID:629 queue:605483725 server:770992 sjr:606254717
ID:630 queue:606609124 server:750417 sjr:607359541
ID:631 queue:607419495 server:767056 sjr:608186551
ID:632 queue:608522084 server:754465 sjr:609276549
ID:633 queue:609671658 server:772252 sjr:610443910
ID:634 queue:610781386 server:746791 sjr:611528177
ID:635 queue:611815303 server:769659 sjr:612584962
ID:636 queue:612089519 server:749590 sjr:612839109
ID:637 queue:613417501 server:771398 sjr:614188899
ID:638 queue:614255511 server:758598 sjr:615014109
ID:639 queue:615402903 server:771090 sjr:616173993
ID:640 queue:616808724 server:751374 sjr:617560098
ID:641 queue:618104647 server:769692 sjr:618874339
ID:642 queue:619365662 server:750647 sjr:620116309
ID:643 queue:620505616 server:772058 sjr:621277674
ID:644 queue:621287902 server:747781 sjr:622035683
ID:645 queue:622185075 server:771546 sjr:622956621
ID:646 queue:623607266 server:751623 sjr:624358889
ID:647 queue:624796769 server:767706 sjr:625564475
ID:648 queue:625876992 server:756292 sjr:626633284
ID:649 queue:627093185 server:771223 sjr:627864408
ID:650 queue:628441760 server:755919 sjr:629197679
ID:651 queue:629605091 server:770255 sjr:630375346
ID:652 queue:630999798 server:753249 sjr:631753047
ID:653 queue:631679811 server:776552 sjr:632456363
ID:654 queue:631473699 server:758284 sjr:632231983
ID:655 queue:629381287 server:770477 sjr:630151764
ID:656 queue:630587742 server:745891 sjr:631333633
ID:657 queue:631875096 server:773515 sjr:632648611
ID:658 queue:632909383 server:754018 sjr:633663401
ID:659 queue:634203469 server:773817 sjr:634977286
ID:660 queue:635269589 server:751929 sjr:636021518
ID:661 queue:636205162 server:774105 sjr:636979267
ID:662 queue:636829859 server:757040 sjr:637586899
ID:663 queue:638159436 server:772888 sjr:638932324
ID:664 queue:639214025 server:755106 sjr:639969131
ID:665 queue:640197298 server:767613 sjr:640964911
ID:666 queue:641047832 server:750976 sjr:641798808
ID:667 queue:641518407 server:767120 sjr:642285527
ID:668 queue:642735610 server:751966 sjr:643487576
ID:669 queue:643457947 server:768170 sjr:644226117
ID:670 queue:644619847 server:748699 sjr:645368546
ID:671 queue:645614112 server:771388 sjr:646385500
ID:672 queue:646560530 server:753682 sjr:647314212
ID:673 queue:647490627 server:767793 sjr:648258420
ID:674 queue:648890504 server:750183 sjr:649640687
ID:675 queue:650082686 server:767404 sjr:650850090
ID:676 queue:651408276 server:752238 sjr:652160514
ID:677 queue:652537470 server:773939 sjr:653311409
ID:678 queue:653307127 server:752618 sjr:654059745
ID:679 queue:654484549 server:769608 sjr:655254157
ID:680 queue:655861020 server:755007 sjr:656616027
ID:681 queue:656997163 server:767237 sjr:657764400
ID:682 queue:658219587 server:751889 sjr:658971476
ID:683 queue:659208098 server:766352 sjr:659974450
ID:684 queue:660245816 server:754911 sjr:661000727
ID:685 queue:661620696 server:769514 sjr:662390210
ID:686 queue:662982780 server:751106 sjr:663733886
ID:687 queue:663986132 server:771309 sjr:664757441
ID:688 queue:665340065 server:752805 sjr:666092870
ID:689 queue:666714410 server:776912 sjr:667491322
ID:690 queue:666892741 server:751432 sjr:667644173
ID:691 queue:667319077 server:771430 sjr:668090507
ID:692 queue:668343752 server:756172 sjr:669099924
ID:693 queue:668814694 server:774997 sjr:669589691
ID:694 queue:669695432 server:754222 sjr:670449654
ID:695 queue:669291851 server:762489 sjr:670054340
ID:696 queue:670619761 server:755984 sjr:671375745
ID:697 queue:671861460 server:771229 sjr:672632689
ID:698 queue:672829603 server:754410 sjr:673584013
ID:699 queue:674204070 server:771738 sjr:674975808
ID:700 queue:674135990 server:755802 sjr:674891792
ID:701 queue:675378305 server:776567 sjr:676154872
ID:702 queue:676524254 server:754371 sjr:677278625
ID:703 queue:677819965 server:769859 sjr:678589824
ID:704 queue:678529322 server:748155 sjr:679277477
ID:705 queue:679369805 server:764719 sjr:680134524
ID:706 queue:680209823 server:754908 sjr:680964731
ID:707 queue:681523593 server:768271 sjr:682291864
ID:708 queue:681675091 server:749500 sjr:682424591
ID:709 queue:683074474 server:767131 sjr:683841605
ID:710 queue:684394389 server:751734 sjr:685146123
ID:711 queue:685245651 server:769665 sjr:686015316
ID:712 queue:686303077 server:778108 sjr:687081185
ID:713 queue:687418974 server:764333 sjr:688183307
ID:714 queue:688787121 server:743474 sjr:689530595
ID:715 queue:689889100 server:766180 sjr:690655280
ID:716 queue:690779513 server:750846 sjr:691530359
ID:717 queue:691111503 server:794524 sjr:691906027
ID:718 queue:692443038 server:745225 sjr:693188263
ID:719 queue:693832252 server:765533 sjr:694597785
ID:720 queue:695190646 server:748122 sjr:695938768
ID:721 queue:696178914 server:766753 sjr:696945667
ID:722 queue:697456673 server:772325 sjr:698228998
ID:723 queue:698864236 server:767580 sjr:699631816
ID:724 queue:699196141 server:748036 sjr:699944177
ID:725 queue:700199496 server:767969 sjr:700967465
ID:726 queue:701285916 server:749429 sjr:702035345
ID:727 queue:701309273 server:797013 sjr:702106286
ID:728 queue:702361317 server:749371 sjr:703110688
ID:729 queue:703063379 server:764364 sjr:703827743
ID:730 queue:704385346 server:746223 sjr:705131569
ID:731 queue:705544227 server:775638 sjr:706319865
ID:732 queue:705265922 server:747500 sjr:706013422
ID:733 queue:706485794 server:791218 sjr:707277012
ID:734 queue:706822947 server:745346 sjr:707568293
ID:735 queue:708076239 server:771664 sjr:708847903
ID:736 queue:708585479 server:753636 sjr:709339115
ID:737 queue:709375623 server:767133 sjr:710142756
ID:738 queue:710421838 server:779169 sjr:711201007
ID:739 queue:711805452 server:773428 sjr:712578880
ID:740 queue:712470160 server:749325 sjr:713219485
ID:741 queue:713687294 server:767359 sjr:714454653
ID:742 queue:714401328 server:751186 sjr:715152514
ID:743 queue:715286832 server:787684 sjr:716074516
ID:744 queue:716643420 server:744023 sjr:717387443
ID:745 queue:717736687 server:763120 sjr:718499807
ID:746 queue:719062834 server:745687 sjr:719808521
ID:747 queue:720196514 server:764720 sjr:720961234
ID:748 queue:721521613 server:746766 sjr:722268379
ID:749 queue:720804537 server:794146 sjr:721598683
ID:750 queue:722046297 server:748397 sjr:722794694
ID:751 queue:723227496 server:761676 sjr:723989172
ID:752 queue:724447231 server:746760 sjr:725193991
ID:753 queue:725333892 server:766664 sjr:726100556
ID:754 queue:726733544 server:774314 sjr:727507858
ID:755 queue:728118630 server:773227 sjr:728891857
ID:756 queue:729205853 server:746709 sjr:729952562
ID:757 queue:730458119 server:766848 sjr:731224967
ID:758 queue:731339206 server:750128 sjr:732089334
ID:759 queue:732740762 server:792302 sjr:733533064
ID:760 queue:734132483 server:751214 sjr:734883697
ID:761 queue:733979637 server:766397 sjr:734746034
ID:762 queue:735306887 server:747666 sjr:736054553
ID:763 queue:736643621 server:768017 sjr:737411638
ID:764 queue:736440844 server:775542 sjr:737216386
ID:765 queue:737742499 server:767329 sjr:738509828
ID:766 queue:739014113 server:749605 sjr:739763718
ID:767 queue:740276028 server:770183 sjr:741046211
ID:768 queue:741298544 server:745190 sjr:742043734
ID:769 queue:741741772 server:766353 sjr:742508125
ID:770 queue:742751349 server:785558 sjr:743536907
ID:771 queue:743026618 server:768865 sjr:743795483
ID:772 queue:743734053 server:747352 sjr:744481405
ID:773 queue:741948726 server:764942 sjr:742713668
ID:774 queue:743130647 server:753186 sjr:743883833
ID:775 queue:743852095 server:794221 sjr:744646316
ID:776 queue:744571438 server:747199 sjr:745318637
ID:777 queue:745457101 server:771428 sjr:746228529
ID:778 queue:746826901 server:754642 sjr:747581543
ID:779 queue:747238820 server:769322 sjr:748008142
ID:780 queue:747322765 server:777315 sjr:748100080
ID:781 queue:748580134 server:769091 sjr:749349225
ID:782 queue:748149046 server:746290 sjr:748895336
ID:783 queue:748659100 server:762466 sjr:749421566
ID:784 queue:749966962 server:745125 sjr:750712087
ID:785 queue:750639718 server:767280 sjr:751406998
ID:786 queue:752042322 server:774806 sjr:752817128
ID:787 queue:753233996 server:765257 sjr:753999253
ID:788 queue:754541512 server:748328 sjr:755289840
ID:789 queue:755485856 server:770302 sjr:756256158
ID:790 queue:756509887 server:744138 sjr:757254025
ID:791 queue:757156366 server:791072 sjr:757947438
ID:792 queue:757983437 server:746488 sjr:758729925
ID:793 queue:758307755 server:767920 sjr:759075675
ID:794 queue:757110964 server:752930 sjr:757863894
ID:795 queue:758170712 server:766948 sjr:758937660
ID:796 queue:758897436 server:773440 sjr:759670876
ID:797 queue:759737165 server:767606 sjr:760504771
ID:798 queue:761062449 server:745943 sjr:761808392
ID:799 queue:762295500 server:770328 sjr:763065828
ID:800 queue:762509647 server:745420 sjr:763255067
ID:801 queue:763652182 server:791431 sjr:764443613
ID:802 queue:763930891 server:748933 sjr:764679824
ID:803 queue:764933120 server:765679 sjr:765698799
ID:804 queue:766196127 server:748436 sjr:766944563
ID:805 queue:767461978 server:766556 sjr:768228534
ID:806 queue:768675207 server:751321 sjr:769426528
ID:807 queue:769776069 server:795895 sjr:770571964
ID:808 queue:770675125 server:744375 sjr:771419500
ID:809 queue:771215473 server:774291 sjr:771989764
ID:810 queue:772250457 server:751659 sjr:773002116
ID:811 queue:772968403 server:763997 sjr:773732400
ID:812 queue:773672696 server:773137 sjr:774445833
ID:813 queue:774836756 server:772784 sjr:775609540
ID:814 queue:775656270 server:749897 sjr:776406167
ID:815 queue:776516536 server:771092 sjr:777287628
ID:816 queue:777778142 server:749918 sjr:778528060
ID:817 queue:779001479 server:797959 sjr:779799438
ID:818 queue:778908459 server:749953 sjr:779658412
ID:819 queue:779147503 server:768319 sjr:779915822
ID:820 queue:778738681 server:751993 sjr:779490674
ID:821 queue:779879256 server:764778 sjr:780644034
ID:822 queue:780500917 server:744912 sjr:781245829
ID:823 queue:781437066 server:791774 sjr:782228840
ID:824 queue:782822420 server:748183 sjr:783570603
ID:825 queue:784185080 server:767231 sjr:784952311
ID:826 queue:785362367 server:745367 sjr:786107734
ID:827 queue:786509713 server:768473 sjr:787278186
ID:828 queue:787519471 server:777424 sjr:788296895
ID:829 queue:788349148 server:763028 sjr:789112176
ID:830 queue:789759464 server:747108 sjr:790506572
ID:831 queue:790914147 server:764168 sjr:791678315
ID:832 queue:791914023 server:748185 sjr:792662208
ID:833 queue:793157813 server:798321 sjr:793956134
ID:834 queue:794519548 server:748034 sjr:795267582
ID:835 queue:795091849 server:766432 sjr:795858281
ID:836 queue:796404037 server:748697 sjr:797152734
ID:837 queue:797283049 server:768448 sjr:798051497
ID:838 queue:798666272 server:776208 sjr:799442480
ID:839 queue:799856012 server:763815 sjr:800619827
ID:840 queue:800931703 server:747356 sjr:801679059
ID:841 queue:802207675 server:771459 sjr:802979134
ID:842 queue:803411880 server:747088 sjr:804158968
ID:843 queue:803696348 server:769331 sjr:804465679
ID:844 queue:804828059 server:775434 sjr:805603493
ID:845 queue:804240985 server:772186 sjr:805013171
ID:846 queue:805234733 server:746685 sjr:805981418
ID:847 queue:806556692 server:762119 sjr:807318811
ID:848 queue:807623795 server:753762 sjr:808377557
ID:849 queue:808984276 server:797124 sjr:809781400
ID:850 queue:810338318 server:747652 sjr:811085970
ID:851 queue:811502229 server:763595 sjr:812265824
ID:852 queue:812827381 server:749451 sjr:813576832
ID:853 queue:814088208 server:772302 sjr:814860510
ID:854 queue:814729303 server:776499 sjr:815505802
ID:855 queue:816014232 server:767291 sjr:816781523
ID:856 queue:817034560 server:753213 sjr:817787773
ID:857 queue:818077807 server:770282 sjr:818848089
ID:858 queue:819282632 server:749364 sjr:820031996
ID:859 queue:820418990 server:768888 sjr:821187878
ID:860 queue:820603190 server:773194 sjr:821376384
ID:861 queue:821608295 server:762603 sjr:822370898
ID:862 queue:822767348 server:746672 sjr:823514020
ID:863 queue:823345257 server:768957 sjr:824114214
ID:864 queue:824744130 server:747062 sjr:825491192
ID:865 queue:826073334 server:789267 sjr:826862601
ID:866 queue:825771948 server:749963 sjr:826521911
ID:867 queue:827056418 server:772433 sjr:827828851
ID:868 queue:827593586 server:742946 sjr:828336532
ID:869 queue:828806790 server:766530 sjr:829573320
ID:870 queue:828129069 server:771313 sjr:828900382
ID:871 queue:829350869 server:769628 sjr:830120497
ID:872 queue:830729256 server:752142 sjr:831481398
ID:873 queue:831560988 server:769218 sjr:832330206
ID:874 queue:832865674 server:747339 sjr:833613013
ID:875 queue:834175181 server:792257 sjr:834967438
ID:876 queue:835509798 server:750385 sjr:836260183
ID:877 queue:835885571 server:767329 sjr:836652900
ID:878 queue:837256439 server:747242 sjr:838003681
ID:879 queue:838513354 server:769141 sjr:839282495
ID:880 queue:839568980 server:749465 sjr:840318445
ID:881 queue:839957099 server:793089 sjr:840750188
ID:882 queue:840946859 server:749525 sjr:841696384
ID:883 queue:840186735 server:766536 sjr:840953271
ID:884 queue:840738445 server:750558 sjr:841489003
ID:885 queue:841561797 server:766731 sjr:842328528
ID:886 queue:842486156 server:771214 sjr:843257370
ID:887 queue:843655773 server:773735 sjr:844429508
ID:888 queue:844807636 server:754581 sjr:845562217
ID:889 queue:845888943 server:768926 sjr:846657869
ID:890 queue:846469393 server:745898 sjr:847215291
ID:891 queue:847693667 server:793484 sjr:848487151
ID:892 queue:848817858 server:753369 sjr:849571227
ID:893 queue:849943728 server:769520 sjr:850713248
ID:894 queue:851054123 server:751813 sjr:851805936
ID:895 queue:851921132 server:770992 sjr:852692124
ID:896 queue:852930709 server:781415 sjr:853712124
ID:897 queue:853813589 server:771052 sjr:854584641
ID:898 queue:854707914 server:750083 sjr:855457997
ID:899 queue:855945745 server:765156 sjr:856710901
ID:900 queue:857360124 server:741877 sjr:858102001
ID:901 queue:858722257 server:767440 sjr:859489697
ID:902 queue:860019321 server:775339 sjr:860794660
ID:903 queue:861300449 server:765317 sjr:862065766
ID:904 queue:862047737 server:743086 sjr:862790823
ID:905 queue:863121183 server:768293 sjr:863889476
ID:906 queue:863258558 server:751160 sjr:864009718
ID:907 queue:864517899 server:787631 sjr:865305530
ID:908 queue:865382533 server:747063 sjr:866129596
ID:909 queue:866461494 server:765216 sjr:867226710
ID:910 queue:867525806 server:748707 sjr:868274513
ID:911 queue:868025142 server:768175 sjr:868793317
ID:912 queue:867636389 server:777211 sjr:868413600
ID:913 queue:868985963 server:767662 sjr:869753625
ID:914 queue:870153069 server:747056 sjr:870900125
ID:915 queue:870815345 server:771101 sjr:871586446
ID:916 queue:871934970 server:748207 sjr:872683177
ID:917 queue:872829177 server:766079 sjr:873595256
ID:918 queue:873569787 server:774789 sjr:874344576
ID:919 queue:874836102 server:769800 sjr:875605902
ID:920 queue:876158087 server:747687 sjr:876905774
ID:921 queue:876781509 server:769116 sjr:877550625
ID:922 queue:878162250 server:746531 sjr:878908781
ID:923 queue:878640795 server:798472 sjr:879439267
ID:924 queue:878642618 server:750791 sjr:879393409
ID:925 queue:878586491 server:763765 sjr:879350256
ID:926 queue:879764627 server:753739 sjr:880518366
ID:927 queue:880287661 server:771567 sjr:881059228
ID:928 queue:881580754 server:778122 sjr:882358876
ID:929 queue:882022638 server:766041 sjr:882788679
ID:930 queue:881893715 server:746257 sjr:882639972
ID:931 queue:882275430 server:773323 sjr:883048753
ID:932 queue:883007694 server:750419 sjr:883758113
ID:933 queue:884141268 server:795226 sjr:884936494
ID:934 queue:885330125 server:747791 sjr:886077916
ID:935 queue:886505675 server:774697 sjr:887280372
ID:936 queue:887818913 server:749375 sjr:888568288
ID:937 queue:888352910 server:768567 sjr:889121477
ID:938 queue:888085290 server:746333 sjr:888831623
ID:939 queue:889213547 server:789583 sjr:890003130
ID:940 queue:890008911 server:746984 sjr:890755895
ID:941 queue:891137735 server:768596 sjr:891906331
ID:942 queue:892096467 server:748091 sjr:892844558
ID:943 queue:891307894 server:762997 sjr:892070891
ID:944 queue:892719797 server:775575 sjr:893495372
ID:945 queue:894076067 server:769268 sjr:894845335
ID:946 queue:894930708 server:743375 sjr:895674083
ID:947 queue:896190981 server:765268 sjr:896956249
ID:948 queue:897038106 server:746178 sjr:897784284
ID:949 queue:898357713 server:795334 sjr:899153047
ID:950 queue:899348733 server:748222 sjr:900096955
ID:951 queue:900710293 server:767644 sjr:901477937
ID:952 queue:902016686 server:745869 sjr:902762555
ID:953 queue:902754569 server:767188 sjr:903521757
ID:954 queue:902585615 server:748752 sjr:903334367
ID:955 queue:903311474 server:790974 sjr:904102448
ID:956 queue:904633243 server:748320 sjr:905381563
ID:957 queue:905119208 server:767259 sjr:905886467
ID:958 queue:906413967 server:750040 sjr:907164007
ID:959 queue:907657676 server:766411 sjr:908424087
ID:960 queue:908171209 server:779761 sjr:908950970
ID:961 queue:909114868 server:767176 sjr:909882044
ID:962 queue:910228790 server:752769 sjr:910981559
ID:963 queue:910987765 server:771461 sjr:911759226
ID:964 queue:912145497 server:745353 sjr:912890850
ID:965 queue:913489422 server:798577 sjr:914287999
ID:966 queue:914654500 server:752602 sjr:915407102
ID:967 queue:915919781 server:769303 sjr:916689084
ID:968 queue:916841912 server:748701 sjr:917590613
ID:969 queue:917849247 server:764813 sjr:918614060
ID:970 queue:919225119 server:779478 sjr:920004597
ID:971 queue:920632030 server:770018 sjr:921402048
ID:972 queue:921737008 server:751601 sjr:922488609
ID:973 queue:922935283 server:767458 sjr:923702741
ID:974 queue:923392576 server:753204 sjr:924145780
ID:975 queue:924635249 server:768945 sjr:925404194
ID:976 queue:925448643 server:776515 sjr:926225158
ID:977 queue:925855271 server:765164 sjr:926620435
ID:978 queue:927171461 server:742614 sjr:927914075
ID:979 queue:928186662 server:767167 sjr:928953829
ID:980 queue:928958451 server:747137 sjr:929705588
ID:981 queue:930223760 server:793812 sjr:931017572
ID:982 queue:931534663 server:744124 sjr:932278787
ID:983 queue:932066417 server:766468 sjr:932832885
ID:984 queue:932472546 server:748659 sjr:933221205
ID:985 queue:933853726 server:762779 sjr:934616505
ID:986 queue:934933595 server:776094 sjr:935709689
ID:987 queue:936143140 server:766041 sjr:936909181
ID:988 queue:937470609 server:747324 sjr:938217933
ID:989 queue:938684657 server:769682 sjr:939454339
ID:990 queue:940024991 server:749938 sjr:940774929
ID:991 queue:940241258 server:766551 sjr:941007809
ID:992 queue:941212097 server:773860 sjr:941985957
ID:993 queue:941753035 server:770809 sjr:942523844
ID:994 queue:943056721 server:748857 sjr:943805578
ID:995 queue:944020805 server:767258 sjr:944788063
ID:996 queue:945355171 server:746545 sjr:946101716
ID:997 queue:946569227 server:798552 sjr:947367779
ID:998 queue:947789424 server:749297 sjr:948538721
ID:999 queue:949172421 server:768401 sjr:949940822
ID:1000 queue:578923 server:746312 sjr:1325235
ID:1001 queue:1670689 server:770335 sjr:2441024
ID:1002 queue:2969019 server:780944 sjr:3749963
ID:1003 queue:3834130 server:767796 sjr:4601926
ID:1004 queue:3890120 server:750018 sjr:4640138
ID:1005 queue:4925476 server:770327 sjr:5695803
ID:1006 queue:6329762 server:751127 sjr:7080889
ID:1007 queue:7355505 server:798706 sjr:8154211
ID:1008 queue:8801420 server:745838 sjr:9547258
ID:1009 queue:10164991 server:768485 sjr:10933476
ID:1010 queue:11005595 server:751323 sjr:11756918
ID:1011 queue:11077215 server:771420 sjr:11848635
ID:1012 queue:12127302 server:749972 sjr:12877274
ID:1013 queue:12998834 server:796011 sjr:13794845
ID:1014 queue:13843626 server:752141 sjr:14595767
ID:1015 queue:14529563 server:769286 sjr:15298849
ID:1016 queue:15925624 server:748579 sjr:16674203
ID:1017 queue:17127156 server:761879 sjr:17889035
ID:1018 queue:17833865 server:773865 sjr:18607730
ID:1019 queue:19031455 server:767507 sjr:19798962
ID:1020 queue:18428005 server:747983 sjr:19175988
ID:1021 queue:19128183 server:763711 sjr:19891894
ID:1022 queue:20505508 server:748480 sjr:21253988
ID:1023 queue:20824913 server:795087 sjr:21620000
ID:1024 queue:21985132 server:745148 sjr:22730280
ID:1025 queue:23056990 server:766674 sjr:23823664
ID:1026 queue:24315505 server:744292 sjr:25059797
ID:1027 queue:25620782 server:766255 sjr:26387037
ID:1028 queue:25899073 server:748289 sjr:26647362
ID:1029 queue:27268154 server:796187 sjr:28064341
ID:1030 queue:28364393 server:748671 sjr:29113064
ID:1031 queue:29570908 server:765114 sjr:30336022
ID:1032 queue:30647809 server:752462 sjr:31400271
ID:1033 queue:32004399 server:768599 sjr:32772998
ID:1034 queue:33386944 server:773497 sjr:34160441
ID:1035 queue:34570025 server:767056 sjr:35337081
ID:1036 queue:34762695 server:752199 sjr:35514894
ID:1037 queue:35854655 server:770881 sjr:36625536
ID:1038 queue:37251167 server:752086 sjr:38003253
ID:1039 queue:37920067 server:790768 sjr:38710835
ID:1040 queue:39295128 server:751980 sjr:40047108
ID:1041 queue:40116995 server:771995 sjr:40888990
ID:1042 queue:41043939 server:748064 sjr:41792003
ID:1043 queue:41797317 server:766178 sjr:42563495
ID:1044 queue:42117513 server:776435 sjr:42893948
ID:1045 queue:43362457 server:770218 sjr:44132675
ID:1046 queue:44424344 server:750781 sjr:45175125
ID:1047 queue:44891133 server:766872 sjr:45658005
ID:1048 queue:45389501 server:748414 sjr:46137915
ID:1049 queue:46521530 server:769231 sjr:47290761
ID:1050 queue:47628162 server:780420 sjr:48408582
ID:1051 queue:48962891 server:770418 sjr:49733309
ID:1052 queue:49960995 server:753517 sjr:50714512
ID:1053 queue:51349540 server:769431 sjr:52118971
ID:1054 queue:52425261 server:749137 sjr:53174398
ID:1055 queue:53136281 server:791577 sjr:53927858
ID:1056 queue:53472395 server:744489 sjr:54216884
ID:1057 queue:53947156 server:765989 sjr:54713145
ID:1058 queue:55244676 server:746447 sjr:55991123
ID:1059 queue:56573721 server:766725 sjr:57340446
ID:1060 queue:57832735 server:772707 sjr:58605442
ID:1061 queue:58990254 server:767431 sjr:59757685
ID:1062 queue:59790309 server:749528 sjr:60539837
ID:1063 queue:61055350 server:765402 sjr:61820752
ID:1064 queue:62282149 server:745627 sjr:63027776
ID:1065 queue:63152711 server:790283 sjr:63942994
ID:1066 queue:64023303 server:747105 sjr:64770408
ID:1067 queue:65177190 server:769348 sjr:65946538
ID:1068 queue:66518788 server:750425 sjr:67269213
ID:1069 queue:66985780 server:767027 sjr:67752807
ID:1070 queue:66848316 server:746402 sjr:67594718
ID:1071 queue:68166814 server:797557 sjr:68964371
ID:1072 queue:69353245 server:752152 sjr:70105397
ID:1073 queue:70341378 server:766386 sjr:71107764
ID:1074 queue:71424692 server:746225 sjr:72170917
ID:1075 queue:71198292 server:769193 sjr:71967485
ID:1076 queue:72508716 server:777115 sjr:73285831
ID:1077 queue:73442281 server:770253 sjr:74212534
ID:1078 queue:74338128 server:747230 sjr:75085358
ID:1079 queue:74924702 server:768546 sjr:75693248
ID:1080 queue:76021755 server:750991 sjr:76772746
ID:1081 queue:77311143 server:795465 sjr:78106608
ID:1082 queue:77598443 server:748394 sjr:78346837
ID:1083 queue:78921109 server:768017 sjr:79689126
ID:1084 queue:80075796 server:752070 sjr:80827866
ID:1085 queue:80395697 server:769165 sjr:81164862
ID:1086 queue:81729010 server:746588 sjr:82475598
ID:1087 queue:82899656 server:792575 sjr:83692231
ID:1088 queue:84271209 server:749767 sjr:85020976
ID:1089 queue:85369485 server:771340 sjr:86140825
ID:1090 queue:86491050 server:752922 sjr:87243972
ID:1091 queue:86554090 server:770650 sjr:87324740
ID:1092 queue:87855289 server:777323 sjr:88632612
ID:1093 queue:88085493 server:768342 sjr:88853835
ID:1094 queue:88519772 server:745806 sjr:89265578
ID:1095 queue:89564827 server:763875 sjr:90328702
ID:1096 queue:90131084 server:747661 sjr:90878745
ID:1097 queue:91219067 server:793783 sjr:92012850
ID:1098 queue:92163418 server:747114 sjr:92910532
ID:1099 queue:92692242 server:763865 sjr:93456107
ID:1100 queue:93501903 server:746414 sjr:94248317
ID:1101 queue:93355515 server:768982 sjr:94124497
ID:1102 queue:94605886 server:773743 sjr:95379629
ID:1103 queue:95670713 server:766248 sjr:96436961
ID:1104 queue:96821874 server:746505 sjr:97568379
ID:1105 queue:97174906 server:766322 sjr:97941228
ID:1106 queue:97938071 server:751267 sjr:98689338
ID:1107 queue:98712286 server:770563 sjr:99482849
ID:1108 queue:99520319 server:774153 sjr:100294472
ID:1109 queue:100935116 server:766193 sjr:101701309
ID:1110 queue:101981127 server:753916 sjr:102735043
ID:1111 queue:103353396 server:769756 sjr:104123152
ID:1112 queue:104439802 server:747865 sjr:105187667
ID:1113 queue:105266577 server:791383 sjr:106057960
ID:1114 queue:105466177 server:749132 sjr:106215309
ID:1115 queue:105764453 server:769632 sjr:106534085
ID:1116 queue:107110234 server:750760 sjr:107860994
ID:1117 queue:106241764 server:767024 sjr:107008788
ID:1118 queue:107365736 server:775565 sjr:108141301
ID:1119 queue:108431169 server:770305 sjr:109201474
ID:1120 queue:109563681 server:750584 sjr:110314265
ID:1121 queue:110144214 server:766945 sjr:110911159
ID:1122 queue:111441982 server:745647 sjr:112187629
ID:1123 queue:112754787 server:771329 sjr:113526116
ID:1124 queue:113699303 server:778169 sjr:114477472
ID:1125 queue:115129039 server:765940 sjr:115894979
ID:1126 queue:115895976 server:750590 sjr:116646566
ID:1127 queue:117027452 server:768135 sjr:117795587
ID:1128 queue:117876015 server:749516 sjr:118625531
ID:1129 queue:118371721 server:801070 sjr:119172791
ID:1130 queue:118941804 server:755808 sjr:119697612
ID:1131 queue:120306040 server:771121 sjr:121077161
ID:1132 queue:121231750 server:747069 sjr:121978819
ID:1133 queue:122511396 server:767525 sjr:123278921
ID:1134 queue:123684964 server:770720 sjr:124455684
ID:1135 queue:123635067 server:768906 sjr:124403973
ID:1136 queue:124897390 server:745591 sjr:125642981
ID:1137 queue:126127267 server:766659 sjr:126893926
ID:1138 queue:126780599 server:745098 sjr:127525697
ID:1139 queue:128011982 server:793019 sjr:128805001
ID:1140 queue:129450748 server:752356 sjr:130203104
ID:1141 queue:128811579 server:766077 sjr:129577656
ID:1142 queue:129372702 server:745187 sjr:130117889
ID:1143 queue:130516378 server:765276 sjr:131281654
ID:1144 queue:131836127 server:746195 sjr:132582322
ID:1145 queue:133147829 server:795785 sjr:133943614
ID:1146 queue:134446848 server:752981 sjr:135199829
ID:1147 queue:135797632 server:766282 sjr:136563914
ID:1148 queue:136710445 server:745058 sjr:137455503
ID:1149 queue:137315881 server:771053 sjr:138086934
ID:1150 queue:138039478 server:777374 sjr:138816852
ID:1151 queue:138967267 server:767087 sjr:139734354
ID:1152 queue:139931228 server:746036 sjr:140677264
ID:1153 queue:141137257 server:769053 sjr:141906310
ID:1154 queue:142496247 server:753290 sjr:143249537
ID:1155 queue:143528361 server:797180 sjr:144325541
ID:1156 queue:144534337 server:747434 sjr:145281771
ID:1157 queue:145326569 server:766351 sjr:146092920
ID:1158 queue:146656379 server:751894 sjr:147408273
ID:1159 queue:147076070 server:767899 sjr:147843969
ID:1160 queue:148088386 server:746451 sjr:148834837
ID:1161 queue:149294928 server:792204 sjr:150087132
ID:1162 queue:150361867 server:751686 sjr:151113553
ID:1163 queue:151321763 server:771550 sjr:152093313
ID:1164 queue:152464281 server:747762 sjr:153212043
ID:1165 queue:153632214 server:770849 sjr:154403063
ID:1166 queue:154758085 server:776835 sjr:155534920
ID:1167 queue:155940522 server:768534 sjr:156709056
ID:1168 queue:157319970 server:752725 sjr:158072695
ID:1169 queue:158577473 server:775542 sjr:159353015
ID:1170 queue:159440632 server:750946 sjr:160191578
ID:1171 queue:160190395 server:792180 sjr:160982575
ID:1172 queue:160186858 server:748893 sjr:160935751
ID:1173 queue:160180065 server:761499 sjr:160941564
ID:1174 queue:161286105 server:749136 sjr:162035241
ID:1175 queue:162144823 server:765470 sjr:162910293
ID:1176 queue:163097151 server:774111 sjr:163871262
ID:1177 queue:164441453 server:764039 sjr:165205492
ID:1178 queue:165646115 server:745652 sjr:166391767
ID:1179 queue:166673806 server:768812 sjr:167442618
ID:1180 queue:168088369 server:746662 sjr:168835031
ID:1181 queue:168971517 server:765768 sjr:169737285
ID:1182 queue:169140286 server:774308 sjr:169914594
ID:1183 queue:168812007 server:765965 sjr:169577972
ID:1184 queue:169300889 server:749137 sjr:170050026
ID:1185 queue:170396535 server:772559 sjr:171169094
ID:1186 queue:171809653 server:747926 sjr:172557579
ID:1187 queue:172593527 server:792715 sjr:173386242
ID:1188 queue:173752078 server:751198 sjr:174503276
ID:1189 queue:174458782 server:767814 sjr:175226596
ID:1190 queue:175284084 server:748817 sjr:176032901
ID:1191 queue:175984587 server:764773 sjr:176749360
ID:1192 queue:177398966 server:773250 sjr:178172216
ID:1193 queue:178782422 server:770081 sjr:179552503
ID:1194 queue:179035344 server:747329 sjr:179782673
ID:1195 queue:179747415 server:766622 sjr:180514037
ID:1196 queue:181161952 server:747511 sjr:181909463
ID:1197 queue:182195404 server:767592 sjr:182962996
ID:1198 queue:183221028 server:774262 sjr:183995290
ID:1199 queue:184525412 server:767557 sjr:185292969
ID:1200 queue:185450354 server:748848 sjr:186199202
ID:1201 queue:186231973 server:768724 sjr:187000697
ID:1202 queue:187489014 server:750520 sjr:188239534
ID:1203 queue:188659247 server:795042 sjr:189454289
ID:1204 queue:189921322 server:754168 sjr:190675490
ID:1205 queue:191271921 server:767433 sjr:192039354
ID:1206 queue:191943575 server:747788 sjr:192691363
ID:1207 queue:193313844 server:769611 sjr:194083455
ID:1208 queue:194647707 server:782555 sjr:195430262
ID:1209 queue:195904583 server:771428 sjr:196676011
ID:1210 queue:197001987 server:746902 sjr:197748889
ID:1211 queue:198034905 server:767309 sjr:198802214
ID:1212 queue:199372425 server:743508 sjr:200115933
ID:1213 queue:199872227 server:794042 sjr:200666269
ID:1214 queue:200886651 server:746184 sjr:201632835
ID:1215 queue:202083629 server:766089 sjr:202849718
ID:1216 queue:201334791 server:746758 sjr:202081549
ID:1217 queue:202732745 server:765337 sjr:203498082
ID:1218 queue:204135215 server:748368 sjr:204883583
ID:1219 queue:205199853 server:791960 sjr:205991813
ID:1220 queue:205970939 server:747465 sjr:206718404
ID:1221 queue:206987019 server:766641 sjr:207753660
ID:1222 queue:208340084 server:748764 sjr:209088848
ID:1223 queue:209636190 server:768982 sjr:210405172
ID:1224 queue:210580471 server:778771 sjr:211359242
ID:1225 queue:211943449 server:769129 sjr:212712578
ID:1226 queue:211822389 server:747454 sjr:212569843
ID:1227 queue:212310985 server:770726 sjr:213081711
ID:1228 queue:213583884 server:746215 sjr:214330099
ID:1229 queue:214706524 server:794887 sjr:215501411
ID:1230 queue:215013000 server:744510 sjr:215757510
ID:1231 queue:215694080 server:769628 sjr:216463708
ID:1232 queue:216815508 server:751340 sjr:217566848
ID:1233 queue:217670011 server:766977 sjr:218436988
ID:1234 queue:218970016 server:777411 sjr:219747427
ID:1235 queue:220002701 server:767113 sjr:220769814
ID:1236 queue:221324394 server:746515 sjr:222070909
ID:1237 queue:222439855 server:766620 sjr:223206475
ID:1238 queue:223276812 server:748183 sjr:224024995
ID:1239 queue:223771410 server:769860 sjr:224541270
ID:1240 queue:223378930 server:774742 sjr:224153672
ID:1241 queue:224764382 server:770911 sjr:225535293
ID:1242 queue:225454560 server:744209 sjr:226198769
ID:1243 queue:226707249 server:771881 sjr:227479130
ID:1244 queue:227397965 server:749008 sjr:228146973
ID:1245 queue:228107088 server:793607 sjr:228900695
ID:1246 queue:228980839 server:752902 sjr:229733741
ID:1247 queue:230367294 server:774632 sjr:231141926
ID:1248 queue:231668819 server:752935 sjr:232421754
ID:1249 queue:232544930 server:769276 sjr:233314206
ID:1250 queue:233733789 server:775651 sjr:234509440
ID:1251 queue:235028494 server:763688 sjr:235792182
ID:1252 queue:236353812 server:748123 sjr:237101935
ID:1253 queue:237665804 server:763957 sjr:238429761
ID:1254 queue:238539205 server:747253 sjr:239286458
ID:1255 queue:238448684 server:765045 sjr:239213729
ID:1256 queue:239380471 server:772214 sjr:240152685
ID:1257 queue:240795562 server:766350 sjr:241561912
ID:1258 queue:241573023 server:749231 sjr:242322254
ID:1259 queue:242946827 server:763635 sjr:243710462
ID:1260 queue:243996501 server:746803 sjr:244743304
ID:1261 queue:245361940 server:791578 sjr:246153518
ID:1262 queue:244915288 server:750283 sjr:245665571
ID:1263 queue:246118732 server:771064 sjr:246889796
ID:1264 queue:246861720 server:747723 sjr:247609443
ID:1265 queue:248165521 server:766584 sjr:248932105
ID:1266 queue:248179151 server:775895 sjr:248955046
ID:1267 queue:249459760 server:765012 sjr:250224772
ID:1268 queue:250811598 server:748305 sjr:251559903
ID:1269 queue:252125564 server:764226 sjr:252889790
ID:1270 queue:253485688 server:750563 sjr:254236251
ID:1271 queue:254658107 server:794483 sjr:255452590
ID:1272 queue:255905291 server:747510 sjr:256652801
ID:1273 queue:256873254 server:770624 sjr:257643878
ID:1274 queue:257585295 server:747882 sjr:258333177
ID:1275 queue:258382710 server:767532 sjr:259150242
ID:1276 queue:258433034 server:746767 sjr:259179801
ID:1277 queue:259607418 server:797488 sjr:260404906
ID:1278 queue:260752113 server:753896 sjr:261506009
ID:1279 queue:262020134 server:769241 sjr:262789375
ID:1280 queue:263167882 server:746325 sjr:263914207
ID:1281 queue:264396314 server:762163 sjr:265158477
ID:1282 queue:265688830 server:779376 sjr:266468206
ID:1283 queue:266745872 server:769725 sjr:267515597
ID:1284 queue:267171652 server:746323 sjr:267917975
ID:1285 queue:267949278 server:771596 sjr:268720874
ID:1286 queue:269131903 server:753840 sjr:269885743
ID:1287 queue:270230155 server:796195 sjr:271026350
ID:1288 queue:270884612 server:749152 sjr:271633764
ID:1289 queue:272284470 server:767953 sjr:273052423
ID:1290 queue:273158079 server:746151 sjr:273904230
ID:1291 queue:274453810 server:765954 sjr:275219764
ID:1292 queue:275799251 server:744128 sjr:276543379
ID:1293 queue:275735990 server:792221 sjr:276528211
ID:1294 queue:276714029 server:746288 sjr:277460317
ID:1295 queue:277898458 server:765625 sjr:278664083
ID:1296 queue:278958140 server:749157 sjr:279707297
ID:1297 queue:279459475 server:768003 sjr:280227478
ID:1298 queue:280679662 server:772519 sjr:281452181
ID:1299 queue:281604876 server:768211 sjr:282373087
ID:1300 queue:283003913 server:743133 sjr:283747046
ID:1301 queue:283670884 server:767540 sjr:284438424
ID:1302 queue:284724973 server:752216 sjr:285477189
ID:1303 queue:286003934 server:789936 sjr:286793870
ID:1304 queue:287397478 server:747773 sjr:288145251
ID:1305 queue:288184425 server:769779 sjr:288954204
ID:1306 queue:289455138 server:747058 sjr:290202196
ID:1307 queue:290615392 server:767788 sjr:291383180
ID:1308 queue:291902608 server:772717 sjr:292675325
ID:1309 queue:293010091 server:767350 sjr:293777441
ID:1310 queue:292537036 server:747719 sjr:293284755
ID:1311 queue:293918271 server:767540 sjr:294685811
ID:1312 queue:295320728 server:749621 sjr:296070349
ID:1313 queue:296273705 server:769725 sjr:297043430
ID:1314 queue:297494680 server:778397 sjr:298273077
ID:1315 queue:298540098 server:765414 sjr:299305512
ID:1316 queue:299699955 server:747688 sjr:300447643
ID:1317 queue:299393670 server:773420 sjr:300167090
ID:1318 queue:299806789 server:750808 sjr:300557597
ID:1319 queue:301128727 server:791019 sjr:301919746
ID:1320 queue:302061863 server:744645 sjr:302806508
ID:1321 queue:302114760 server:771336 sjr:302886096
ID:1322 queue:302693190 server:752039 sjr:303445229
ID:1323 queue:303672382 server:766956 sjr:304439338
ID:1324 queue:303639412 server:777517 sjr:304416929
ID:1325 queue:304984855 server:772673 sjr:305757528
ID:1326 queue:306198399 server:752315 sjr:306950714
ID:1327 queue:307552179 server:769738 sjr:308321917
ID:1328 queue:308963392 server:748764 sjr:309712156
ID:1329 queue:309392375 server:763746 sjr:310156121
ID:1330 queue:310247483 server:773291 sjr:311020774
ID:1331 queue:311073036 server:765636 sjr:311838672
ID:1332 queue:312384253 server:745475 sjr:313129728
ID:1333 queue:313569163 server:764904 sjr:314334067
ID:1334 queue:314909427 server:745891 sjr:315655318
ID:1335 queue:316181088 server:795541 sjr:316976629
ID:1336 queue:317186335 server:749788 sjr:317936123
ID:1337 queue:318574521 server:764271 sjr:319338792
ID:1338 queue:319273066 server:747839 sjr:320020905
ID:1339 queue:320633576 server:764918 sjr:321398494
ID:1340 queue:320752815 server:773260 sjr:321526075
ID:1341 queue:321896790 server:772588 sjr:322669378
ID:1342 queue:322431793 server:748473 sjr:323180266
ID:1343 queue:323370934 server:766165 sjr:324137099
ID:1344 queue:324422586 server:746501 sjr:325169087
ID:1345 queue:325733735 server:793591 sjr:326527326
ID:1346 queue:326753131 server:747663 sjr:327500794
ID:1347 queue:327772821 server:763313 sjr:328536134
ID:1348 queue:328637755 server:747832 sjr:329385587
ID:1349 queue:329638411 server:769566 sjr:330407977
ID:1350 queue:330507477 server:747357 sjr:331254834
ID:1351 queue:331482031 server:795345 sjr:332277376
ID:1352 queue:332637060 server:749158 sjr:333386218
ID:1353 queue:333688992 server:771931 sjr:334460923
ID:1354 queue:335096765 server:744705 sjr:335841470
ID:1355 queue:336125146 server:765020 sjr:336890166
ID:1356 queue:337523835 server:779997 sjr:338303832
ID:1357 queue:338897968 server:771537 sjr:339669505
ID:1358 queue:339919217 server:746346 sjr:340665563
ID:1359 queue:340845422 server:764580 sjr:341610002
ID:1360 queue:341522707 server:750158 sjr:342272865
ID:1361 queue:342591597 server:797389 sjr:343388986
ID:1362 queue:343444826 server:747697 sjr:344192523
ID:1363 queue:344511499 server:769363 sjr:345280862
ID:1364 queue:345313962 server:754605 sjr:346068567
ID:1365 queue:346558398 server:770394 sjr:347328792
ID:1366 queue:347816715 server:748058 sjr:348564773
ID:1367 queue:348838807 server:795655 sjr:349634462
ID:1368 queue:350152126 server:744376 sjr:350896502
ID:1369 queue:351093734 server:763640 sjr:351857374
ID:1370 queue:351245540 server:745636 sjr:351991176
ID:1371 queue:351782576 server:766111 sjr:352548687
ID:1372 queue:353069568 server:773285 sjr:353842853
ID:1373 queue:353345492 server:765334 sjr:354110826
ID:1374 queue:354234279 server:748456 sjr:354982735
ID:1375 queue:354260037 server:770551 sjr:355030588
ID:1376 queue:354703283 server:742195 sjr:355445478
ID:1377 queue:354575367 server:791490 sjr:355366857
ID:1378 queue:355953452 server:746897 sjr:356700349
ID:1379 queue:356746105 server:766720 sjr:357512825
ID:1380 queue:358107162 server:752470 sjr:358859632
ID:1381 queue:359459187 server:768656 sjr:360227843
ID:1382 queue:360667439 server:775966 sjr:361443405
ID:1383 queue:361386673 server:768145 sjr:362154818
ID:1384 queue:362605885 server:746686 sjr:363352571
ID:1385 queue:363579150 server:768140 sjr:364347290
ID:1386 queue:364885889 server:745835 sjr:365631724
ID:1387 queue:364451462 server:769370 sjr:365220832
ID:1388 queue:365532457 server:776656 sjr:366309113
ID:1389 queue:366142711 server:767242 sjr:366909953
ID:1390 queue:367474307 server:749358 sjr:368223665
ID:1391 queue:368794422 server:767384 sjr:369561806
ID:1392 queue:369973336 server:753408 sjr:370726744
ID:1393 queue:371103485 server:790099 sjr:371893584
ID:1394 queue:372019972 server:745969 sjr:372765941
ID:1395 queue:373386773 server:773024 sjr:374159797
ID:1396 queue:373671120 server:751771 sjr:374422891
ID:1397 queue:373916293 server:769135 sjr:374685428
ID:1398 queue:375243604 server:771785 sjr:376015389
ID:1399 queue:376651360 server:769724 sjr:377421084
ID:1400 queue:377704126 server:753056 sjr:378457182
ID:1401 queue:378947595 server:769701 sjr:379717296
ID:1402 queue:379928095 server:748368 sjr:380676463
ID:1403 queue:380492821 server:798229 sjr:381291050
ID:1404 queue:380537216 server:752359 sjr:381289575
ID:1405 queue:381508148 server:769791 sjr:382277939
ID:1406 queue:381866598 server:750224 sjr:382616822
ID:1407 queue:383163571 server:764979 sjr:383928550
ID:1408 queue:383945787 server:742874 sjr:384688661
ID:1409 queue:385301710 server:793520 sjr:386095230
ID:1410 queue:385690661 server:748490 sjr:386439151
ID:1411 queue:387043701 server:766986 sjr:387810687
ID:1412 queue:388193385 server:746398 sjr:388939783
ID:1413 queue:389028862 server:767786 sjr:389796648
ID:1414 queue:389609946 server:777114 sjr:390387060
ID:1415 queue:390305293 server:762987 sjr:391068280
ID:1416 queue:390586440 server:746893 sjr:391333333
ID:1417 queue:391652678 server:765303 sjr:392417981
ID:1418 queue:392833817 server:748081 sjr:393581898
ID:1419 queue:393652393 server:798254 sjr:394450647
ID:1420 queue:395062988 server:748542 sjr:395811530
ID:1421 queue:396139070 server:764852 sjr:396903922
ID:1422 queue:397419620 server:749997 sjr:398169617
ID:1423 queue:396958757 server:769312 sjr:397728069
ID:1424 queue:397808391 server:750279 sjr:398558670
ID:1425 queue:398985193 server:793976 sjr:399779169
ID:1426 queue:399639453 server:749646 sjr:400389099
ID:1427 queue:401001060 server:770298 sjr:401771358
ID:1428 queue:402091569 server:747382 sjr:402838951
ID:1429 queue:403143561 server:766378 sjr:403909939
ID:1430 queue:403211226 server:773806 sjr:403985032
ID:1431 queue:404557432 server:774473 sjr:405331905
ID:1432 queue:405942041 server:748131 sjr:406690172
ID:1433 queue:407080226 server:766189 sjr:407846415
ID:1434 queue:406848237 server:755362 sjr:407603599
ID:1435 queue:408144640 server:798089 sjr:408942729
ID:1436 queue:409485417 server:750124 sjr:410235541
ID:1437 queue:410458649 server:764955 sjr:411223604
ID:1438 queue:411435178 server:747477 sjr:412182655
ID:1439 queue:412604353 server:774134 sjr:413378487
ID:1440 queue:413572309 server:778603 sjr:414350912
ID:1441 queue:414923180 server:770336 sjr:415693516
ID:1442 queue:413655391 server:749785 sjr:414405176
ID:1443 queue:414799322 server:772089 sjr:415571411
ID:1444 queue:415368073 server:748615 sjr:416116688
ID:1445 queue:416534676 server:769733 sjr:417304409
ID:1446 queue:417629800 server:772339 sjr:418402139
ID:1447 queue:418534082 server:764945 sjr:419299027
ID:1448 queue:419147842 server:745410 sjr:419893252
ID:1449 queue:420322667 server:768863 sjr:421091530
ID:1450 queue:421540902 server:747748 sjr:422288650
ID:1451 queue:422863008 server:787596 sjr:423650604
ID:1452 queue:423752674 server:749147 sjr:424501821
ID:1453 queue:424964413 server:769505 sjr:425733918
ID:1454 queue:425924845 server:744212 sjr:426669057
ID:1455 queue:426054389 server:767608 sjr:426821997
ID:1456 queue:427111064 server:772068 sjr:427883132
ID:1457 queue:428383011 server:767998 sjr:429151009
ID:1458 queue:428906169 server:752881 sjr:429659050
ID:1459 queue:429807500 server:767337 sjr:430574837
ID:1460 queue:430920630 server:746868 sjr:431667498
ID:1461 queue:432234962 server:768375 sjr:433003337
ID:1462 queue:433106624 server:776384 sjr:433883008
ID:1463 queue:433742491 server:769228 sjr:434511719
ID:1464 queue:434993446 server:747093 sjr:435740539
ID:1465 queue:436198509 server:767657 sjr:436966166
ID:1466 queue:436982173 server:752313 sjr:437734486
ID:1467 queue:438254058 server:794624 sjr:439048682
ID:1468 queue:439465497 server:748746 sjr:440214243
ID:1469 queue:440827014 server:764681 sjr:441591695
ID:1470 queue:441826194 server:754968 sjr:442581162
ID:1471 queue:442958931 server:769811 sjr:443728742
ID:1472 queue:444207658 server:772409 sjr:444980067
ID:1473 queue:445410983 server:772557 sjr:446183540
ID:1474 queue:446390361 server:754161 sjr:447144522
ID:1475 queue:447485325 server:768716 sjr:448254041
ID:1476 queue:447460907 server:746803 sjr:448207710
ID:1477 queue:448834002 server:793177 sjr:449627179
ID:1478 queue:449826494 server:752378 sjr:450578872
ID:1479 queue:450232325 server:770763 sjr:451003088
ID:1480 queue:451601010 server:752326 sjr:452353336
ID:1481 queue:452109641 server:767602 sjr:452877243
ID:1482 queue:452991001 server:751183 sjr:453742184
ID:1483 queue:454384769 server:795006 sjr:455179775
ID:1484 queue:455723072 server:750591 sjr:456473663
ID:1485 queue:456754747 server:763250 sjr:457517997
ID:1486 queue:457533540 server:742713 sjr:458276253
ID:1487 queue:458019854 server:767497 sjr:458787351
ID:1488 queue:458898054 server:775220 sjr:459673274
ID:1489 queue:459810543 server:766549 sjr:460577092
ID:1490 queue:460846636 server:744603 sjr:461591239
ID:1491 queue:462047438 server:768191 sjr:462815629
ID:1492 queue:463174445 server:750842 sjr:463925287
ID:1493 queue:464415003 server:788185 sjr:465203188
ID:1494 queue:465793226 server:747010 sjr:466540236
ID:1495 queue:466287554 server:764043 sjr:467051597
ID:1496 queue:467501770 server:749421 sjr:468251191
ID:1497 queue:468519590 server:768711 sjr:469288301
ID:1498 queue:468611816 server:746377 sjr:469358193
ID:1499 queue:469870194 server:790170 sjr:470660364
ID:1500 queue:470858194 server:748106 sjr:471606300
ID:1501 queue:472115325 server:769756 sjr:472885081
ID:1502 queue:473428045 server:748093 sjr:474176138
ID:1503 queue:473923696 server:767993 sjr:474691689
ID:1504 queue:474854947 server:775621 sjr:475630568
ID:1505 queue:475725435 server:771828 sjr:476497263
ID:1506 queue:476124083 server:749064 sjr:476873147
ID:1507 queue:477462463 server:769516 sjr:478231979
ID:1508 queue:478319360 server:748933 sjr:479068293
ID:1509 queue:479417484 server:799277 sjr:480216761
ID:1510 queue:480852526 server:753006 sjr:481605532
ID:1511 queue:481292119 server:763852 sjr:482055971
ID:1512 queue:482166894 server:751984 sjr:482918878
ID:1513 queue:483540385 server:773211 sjr:484313596
ID:1514 queue:484801727 server:778724 sjr:485580451
ID:1515 queue:486135652 server:769774 sjr:486905426
ID:1516 queue:486420077 server:747285 sjr:487167362
ID:1517 queue:487368569 server:771047 sjr:488139616
ID:1518 queue:488203847 server:751570 sjr:488955417
ID:1519 queue:489186675 server:772104 sjr:489958779
ID:1520 queue:490326469 server:774056 sjr:491100525
ID:1521 queue:491638133 server:773517 sjr:492411650
ID:1522 queue:492904735 server:747952 sjr:493652687
ID:1523 queue:494164791 server:768424 sjr:494933215
ID:1524 queue:495260024 server:744341 sjr:496004365
ID:1525 queue:495027958 server:788836 sjr:495816794
ID:1526 queue:496344904 server:748263 sjr:497093167
ID:1527 queue:496981851 server:766559 sjr:497748410
ID:1528 queue:496791146 server:745225 sjr:497536371
ID:1529 queue:497763077 server:763401 sjr:498526478
ID:1530 queue:499108709 server:776387 sjr:499885096
ID:1531 queue:500188836 server:771120 sjr:500959956
ID:1532 queue:501259884 server:742343 sjr:502002227
ID:1533 queue:502590680 server:765893 sjr:503356573
ID:1534 queue:503456108 server:745498 sjr:504201606
ID:1535 queue:504609535 server:769291 sjr:505378826
ID:1536 queue:505141565 server:776790 sjr:505918355
ID:1537 queue:506504499 server:768465 sjr:507272964
ID:1538 queue:507403034 server:749092 sjr:508152126
ID:1539 queue:507858335 server:765488 sjr:508623823
ID:1540 queue:509220281 server:752055 sjr:509972336
ID:1541 queue:510400349 server:795399 sjr:511195748
ID:1542 queue:511212477 server:747727 sjr:511960204
ID:1543 queue:512177556 server:768695 sjr:512946251
ID:1544 queue:513511465 server:750046 sjr:514261511
ID:1545 queue:514820768 server:769783 sjr:515590551
ID:1546 queue:515685840 server:778631 sjr:516464471
ID:1547 queue:516027991 server:764609 sjr:516792600
ID:1548 queue:517236298 server:750927 sjr:517987225
ID:1549 queue:518038047 server:770363 sjr:518808410
[...]
ID:1929 queue:868428612 server:768317 sjr:869196929
ID:1930 queue:868301326 server:749575 sjr:869050901
ID:1931 queue:868686524 server:768154 sjr:869454678
ID:1932 queue:869413064 server:774566 sjr:870187630
ID:1933 queue:870569219 server:764628 sjr:871333847
ID:1934 queue:871726257 server:752368 sjr:872478625
ID:1935 queue:872904870 server:767600 sjr:873672470
ID:1936 queue:874209545 server:746673 sjr:874956218
ID:1937 queue:874740241 server:795177 sjr:875535418
ID:1938 queue:874497648 server:751454 sjr:875249102
ID:1939 queue:875631046 server:773018 sjr:876404064
ID:1940 queue:876410866 server:746215 sjr:877157081
ID:1941 queue:877542040 server:767592 sjr:878309632
ID:1942 queue:878498347 server:779040 sjr:879277387
ID:1943 queue:877741027 server:771225 sjr:878512252
ID:1944 queue:879161665 server:751384 sjr:879913049
ID:1945 queue:880495810 server:762690 sjr:881258500
ID:1946 queue:881344067 server:748916 sjr:882092983
ID:1947 queue:882610586 server:800470 sjr:883411056
ID:1948 queue:883492768 server:752788 sjr:884245556
ID:1949 queue:884818655 server:768313 sjr:885586968
ID:1950 queue:885781914 server:749711 sjr:886531625
ID:1951 queue:887145919 server:772990 sjr:887918909
ID:1952 queue:888457645 server:750435 sjr:889208080
ID:1953 queue:889201654 server:794870 sjr:889996524
ID:1954 queue:889060004 server:746579 sjr:889806583
ID:1955 queue:889783472 server:765516 sjr:890548988
ID:1956 queue:891078218 server:747775 sjr:891825993
ID:1957 queue:891562889 server:767184 sjr:892330073
ID:1958 queue:892858788 server:772608 sjr:893631396
ID:1959 queue:894126155 server:764697 sjr:894890852
ID:1960 queue:894639198 server:749729 sjr:895388927
ID:1961 queue:895551635 server:767521 sjr:896319156
ID:1962 queue:896665941 server:743096 sjr:897409037
ID:1963 queue:897415410 server:792400 sjr:898207810
ID:1964 queue:898593683 server:743451 sjr:899337134
ID:1965 queue:899935425 server:766852 sjr:900702277
ID:1966 queue:901068454 server:752527 sjr:901820981
ID:1967 queue:902333732 server:768273 sjr:903102005
ID:1968 queue:903254691 server:744508 sjr:903999199
ID:1969 queue:904257439 server:793551 sjr:905050990
ID:1970 queue:905661103 server:749093 sjr:906410196
ID:1971 queue:907037094 server:769559 sjr:907806653
ID:1972 queue:908140143 server:743439 sjr:908883582
ID:1973 queue:909328152 server:770638 sjr:910098790
ID:1974 queue:909789111 server:778015 sjr:910567126
ID:1975 queue:911054964 server:767750 sjr:911822714
ID:1976 queue:911866244 server:748439 sjr:912614683
ID:1977 queue:912244763 server:769970 sjr:913014733
ID:1978 queue:913566704 server:753326 sjr:914320030
ID:1979 queue:914593889 server:794155 sjr:915388044
ID:1980 queue:915393922 server:745801 sjr:916139723
ID:1981 queue:916657091 server:772746 sjr:917429837
ID:1982 queue:917946123 server:751080 sjr:918697203
ID:1983 queue:918484483 server:769916 sjr:919254399
ID:1984 queue:918894211 server:773743 sjr:919667954
ID:1985 queue:920300364 server:766806 sjr:921067170
ID:1986 queue:921384846 server:753967 sjr:922138813
ID:1987 queue:922570900 server:771726 sjr:923342626
ID:1988 queue:923904858 server:751282 sjr:924656140
ID:1989 queue:925122974 server:771286 sjr:925894260
ID:1990 queue:926465164 server:779533 sjr:927244697
ID:1991 queue:926711055 server:770978 sjr:927482033
ID:1992 queue:927686568 server:750496 sjr:928437064
ID:1993 queue:928204564 server:763019 sjr:928967583
ID:1994 queue:929500834 server:744251 sjr:930245085
ID:1995 queue:930459273 server:790733 sjr:931250006
ID:1996 queue:931817536 server:748636 sjr:932566172
ID:1997 queue:933034715 server:763628 sjr:933798343
ID:1998 queue:934221128 server:744682 sjr:934965810
ID:1999 queue:935599875 server:769257 sjr:936369132
ID:2000 queue:936986620 server:776772 sjr:937763392
ID:2001 queue:937679404 server:760500 sjr:938439904
ID:2002 queue:938910976 server:745622 sjr:939656598
ID:2003 queue:938599929 server:766621 sjr:939366550
ID:2004 queue:939419910 server:746602 sjr:940166512
ID:2005 queue:940734283 server:771937 sjr:941506220
ID:2006 queue:941741503 server:774195 sjr:942515698
ID:2007 queue:942584465 server:765795 sjr:943350260
ID:2008 queue:943694122 server:750567 sjr:944444689
ID:2009 queue:945008303 server:769432 sjr:945777735
ID:2010 queue:946423746 server:748104 sjr:947171850
ID:2011 queue:947004727 server:791790 sjr:947796517
ID:2012 queue:948033135 server:750087 sjr:948783222
ID:2013 queue:949005975 server:772453 sjr:949778428
ID:2014 queue:949777882 server:748121 sjr:950526003
ID:2015 queue:950819601 server:765589 sjr:951585190
ID:2016 queue:951915154 server:776338 sjr:952691492
ID:2017 queue:952903833 server:775828 sjr:953679661
ID:2018 queue:953685873 server:748754 sjr:954434627
ID:2019 queue:954874533 server:762787 sjr:955637320
ID:2020 queue:956272192 server:750665 sjr:957022857
ID:2021 queue:956966352 server:798749 sjr:957765101
ID:2022 queue:958153463 server:751665 sjr:958905128
ID:2023 queue:959468707 server:769208 sjr:960237915
ID:2024 queue:960873143 server:748619 sjr:961621762
ID:2025 queue:962259063 server:770401 sjr:963029464
ID:2026 queue:962212516 server:748625 sjr:962961141
ID:2027 queue:962755830 server:2357313 sjr:965113143
ID:2028 queue:965564228 server:790475 sjr:966354703
ID:2029 queue:966106911 server:790216 sjr:966897127
ID:2030 queue:967259615 server:780096 sjr:968039711
ID:2031 queue:968663671 server:791321 sjr:969454992
ID:2032 queue:969591786 server:773094 sjr:970364880
ID:2033 queue:970901937 server:796160 sjr:971698097
ID:2034 queue:971766788 server:779178 sjr:972545966
ID:2035 queue:972970548 server:798860 sjr:973769408
ID:2036 queue:974358440 server:775000 sjr:975133440
ID:2037 queue:974949104 server:785102 sjr:975734206
ID:2038 queue:975999693 server:779245 sjr:976778938
ID:2039 queue:976772821 server:795117 sjr:977567938
ID:2040 queue:977823407 server:773146 sjr:978596553
ID:2041 queue:978638005 server:787235 sjr:979425240
ID:2042 queue:979442250 server:766763 sjr:980209013
ID:2043 queue:980252792 server:790576 sjr:981043368
ID:2044 queue:981457901 server:769027 sjr:982226928
ID:2045 queue:982779413 server:790347 sjr:983569760
ID:2046 queue:984043711 server:766936 sjr:984810647
ID:2047 queue:984862159 server:785198 sjr:985647357
ID:2048 queue:985963904 server:769688 sjr:986733592
ID:2049 queue:987287954 server:780973 sjr:988068927
ID:2050 queue:988588899 server:759330 sjr:989348229
ID:2051 queue:989626120 server:780428 sjr:990406548
ID:2052 queue:990853707 server:762098 sjr:991615805
ID:2053 queue:991707433 server:777376 sjr:992484809
ID:2054 queue:992684676 server:757004 sjr:993441680
ID:2055 queue:993235463 server:772025 sjr:994007488
ID:2056 queue:994635406 server:762258 sjr:995397664
ID:2057 queue:995976863 server:778117 sjr:996754980
ID:2058 queue:996439825 server:752529 sjr:997192354
ID:2059 queue:997834587 server:773374 sjr:998607961
ID:2060 queue:999100055 server:758556 sjr:999858611
ID:2061 queue:1000457734 server:775311 sjr:1001233045
ID:2062 queue:1001123538 server:754713 sjr:1001878251
ID:2063 queue:1001732646 server:768592 sjr:1002501238
ID:2064 queue:1003145581 server:757710 sjr:1003903291
ID:2065 queue:1004064605 server:775341 sjr:1004839946
ID:2066 queue:1005305542 server:756122 sjr:1006061664
ID:2067 queue:1006520828 server:774939 sjr:1007295767
ID:2068 queue:1007105831 server:753155 sjr:1007858986
ID:2069 queue:1007842271 server:775173 sjr:1008617444
ID:2070 queue:1009199993 server:754141 sjr:1009954134
ID:2071 queue:1010414616 server:767621 sjr:1011182237
ID:2072 queue:1011778843 server:749290 sjr:1012528133
ID:2073 queue:1012103059 server:767365 sjr:1012870424
ID:2074 queue:1013042505 server:754506 sjr:1013797011
ID:2075 queue:1013396858 server:769570 sjr:1014166428
ID:2076 queue:1014582250 server:748239 sjr:1015330489
ID:2077 queue:1015167314 server:770432 sjr:1015937746
ID:2078 queue:1016066569 server:751686 sjr:1016818255
ID:2079 queue:1017437565 server:767097 sjr:1018204662
ID:2080 queue:1018409738 server:749201 sjr:1019158939
ID:2081 queue:1019610239 server:767463 sjr:1020377702
ID:2082 queue:1020885478 server:752146 sjr:1021637624
ID:2083 queue:1022202779 server:773532 sjr:1022976311
ID:2084 queue:1023001192 server:752849 sjr:1023754041
ID:2085 queue:1024366627 server:770622 sjr:1025137249
ID:2086 queue:1025684743 server:752151 sjr:1026436894
ID:2087 queue:1026952901 server:773168 sjr:1027726069
ID:2088 queue:1028271503 server:752401 sjr:1029023904
ID:2089 queue:1029465019 server:769984 sjr:1030235003
ID:2090 queue:1030695748 server:753915 sjr:1031449663
ID:2091 queue:1030141404 server:775882 sjr:1030917286
ID:2092 queue:1031027748 server:751689 sjr:1031779437
ID:2093 queue:1031108841 server:771447 sjr:1031880288
ID:2094 queue:1031760779 server:749330 sjr:1032510109
ID:2095 queue:1032635707 server:779652 sjr:1033415359
ID:2096 queue:1033967622 server:753795 sjr:1034721417
ID:2097 queue:1035224495 server:769057 sjr:1035993552
ID:2098 queue:1036632907 server:752292 sjr:1037385199
ID:2099 queue:1037704942 server:775628 sjr:1038480570
ID:2100 queue:1037416321 server:753098 sjr:1038169419
ID:2101 queue:1037737742 server:773582 sjr:1038511324
ID:2102 queue:1038146855 server:750701 sjr:1038897556
ID:2103 queue:1039442781 server:773112 sjr:1040215893
ID:2104 queue:1040740028 server:755056 sjr:1041495084
ID:2105 queue:1041295331 server:775811 sjr:1042071142
ID:2106 queue:1042331020 server:758293 sjr:1043089313
ID:2107 queue:1043639640 server:772086 sjr:1044411726
ID:2108 queue:1043943306 server:752013 sjr:1044695319
ID:2109 queue:1045182699 server:772420 sjr:1045955119
ID:2110 queue:1046389886 server:749086 sjr:1047138972
ID:2111 queue:1047200178 server:768629 sjr:1047968807
ID:2112 queue:1048598397 server:749436 sjr:1049347833
ID:2113 queue:1049859907 server:768879 sjr:1050628786
ID:2114 queue:1050858408 server:751364 sjr:1051609772
ID:2115 queue:1052044959 server:766273 sjr:1052811232
ID:2116 queue:1053291639 server:753655 sjr:1054045294
ID:2117 queue:1054504480 server:772409 sjr:1055276889
ID:2118 queue:1055385901 server:745714 sjr:1056131615
ID:2119 queue:1055425440 server:768497 sjr:1056193937
ID:2120 queue:1056053459 server:749384 sjr:1056802843
ID:2121 queue:1057271012 server:772178 sjr:1058043190
ID:2122 queue:1058499886 server:756237 sjr:1059256123
ID:2123 queue:1059877162 server:769716 sjr:1060646878
ID:2124 queue:1061188775 server:752802 sjr:1061941577
ID:2125 queue:1062229030 server:769941 sjr:1062998971
ID:2126 queue:1063259708 server:758889 sjr:1064018597
ID:2127 queue:1064196690 server:773404 sjr:1064970094
ID:2128 queue:1063632543 server:752735 sjr:1064385278
ID:2129 queue:1064521839 server:770083 sjr:1065291922
ID:2130 queue:1065837273 server:754268 sjr:1066591541
ID:2131 queue:1067149046 server:771769 sjr:1067920815
ID:2132 queue:1067252136 server:753263 sjr:1068005399
ID:2133 queue:1068404068 server:769381 sjr:1069173449
ID:2134 queue:1069715978 server:754566 sjr:1070470544
ID:2135 queue:1070314118 server:773135 sjr:1071087253
ID:2136 queue:1070869288 server:751095 sjr:1071620383
ID:2137 queue:1071848647 server:771249 sjr:1072619896
ID:2138 queue:1073226161 server:755331 sjr:1073981492
ID:2139 queue:1074574378 server:772786 sjr:1075347164
ID:2140 queue:1075317496 server:754179 sjr:1076071675
ID:2141 queue:1076185176 server:771543 sjr:1076956719
ID:2142 queue:1077254449 server:752767 sjr:1078007216
ID:2143 queue:1078561846 server:774850 sjr:1079336696
ID:2144 queue:1079831643 server:756270 sjr:1080587913
ID:2145 queue:1080936533 server:776602 sjr:1081713135
ID:2146 queue:1080768303 server:754422 sjr:1081522725
ID:2147 queue:1082078239 server:771409 sjr:1082849648
ID:2148 queue:1083138611 server:756562 sjr:1083895173
ID:2149 queue:1084092668 server:766573 sjr:1084859241
ID:2150 queue:1084832017 server:746863 sjr:1085578880
ID:2151 queue:1086018786 server:769801 sjr:1086788587
ID:2152 queue:1085793184 server:751085 sjr:1086544269
ID:2153 queue:1087144251 server:767330 sjr:1087911581
ID:2154 queue:1088507951 server:748253 sjr:1089256204
ID:2155 queue:1089117525 server:770754 sjr:1089888279
ID:2156 queue:1090300673 server:754109 sjr:1091054782
ID:2157 queue:1091631086 server:764805 sjr:1092395891
ID:2158 queue:1092996375 server:750043 sjr:1093746418
ID:2159 queue:1094333890 server:769712 sjr:1095103602
ID:2160 queue:1095130357 server:753968 sjr:1095884325
ID:2161 queue:1096103383 server:774479 sjr:1096877862
ID:2162 queue:1097086529 server:752045 sjr:1097838574
ID:2163 queue:1095805539 server:770684 sjr:1096576223
ID:2164 queue:1097192773 server:753537 sjr:1097946310
ID:2165 queue:1098363032 server:774566 sjr:1099137598
ID:2166 queue:1099653144 server:753150 sjr:1100406294
ID:2167 queue:1099025449 server:766861 sjr:1099792310
ID:2168 queue:1100372069 server:750796 sjr:1101122865
ID:2169 queue:1101261614 server:772660 sjr:1102034274
ID:2170 queue:1102152937 server:753494 sjr:1102906431
ID:2171 queue:1103342452 server:773733 sjr:1104116185
ID:2172 queue:1103710320 server:748946 sjr:1104459266
ID:2173 queue:1105017178 server:770296 sjr:1105787474
ID:2174 queue:1106108263 server:754511 sjr:1106862774
ID:2175 queue:1107464403 server:801601 sjr:1108266004
ID:2176 queue:1108851792 server:747155 sjr:1109598947
ID:2177 queue:1110185064 server:770102 sjr:1110955166
ID:2178 queue:1111533810 server:749194 sjr:1112283004
ID:2179 queue:1112662317 server:769830 sjr:1113432147
ID:2180 queue:1113935580 server:772579 sjr:1114708159
ID:2181 queue:1114937775 server:767132 sjr:1115704907
ID:2182 queue:1116252080 server:750178 sjr:1117002258
ID:2183 queue:1117568766 server:769742 sjr:1118338508
ID:2184 queue:1118530613 server:749783 sjr:1119280396
ID:2185 queue:1119879527 server:795953 sjr:1120675480
ID:2186 queue:1121116002 server:749824 sjr:1121865826
ID:2187 queue:1121272569 server:768907 sjr:1122041476
ID:2188 queue:1121355332 server:745290 sjr:1122100622
ID:2189 queue:1122612355 server:760266 sjr:1123372621
ID:2190 queue:1123220538 server:772276 sjr:1123992814
ID:2191 queue:1124201132 server:767437 sjr:1124968569
ID:2192 queue:1124785762 server:745175 sjr:1125530937
ID:2193 queue:1125819797 server:763730 sjr:1126583527
ID:2194 queue:1126697394 server:747577 sjr:1127444971
ID:2195 queue:1127855895 server:770196 sjr:1128626091
ID:2196 queue:1129170645 server:770012 sjr:1129940657
ID:2197 queue:1130182386 server:766189 sjr:1130948575
ID:2198 queue:1130996811 server:748922 sjr:1131745733
ID:2199 queue:1132245343 server:768748 sjr:1133014091
ID:2200 queue:1133604034 server:751418 sjr:1134355452
ID:2201 queue:1134982119 server:793864 sjr:1135775983
ID:2202 queue:1136401872 server:746992 sjr:1137148864
ID:2203 queue:1137010821 server:766389 sjr:1137777210
ID:2204 queue:1138264244 server:747233 sjr:1139011477
ID:2205 queue:1139536418 server:767493 sjr:1140303911
ID:2206 queue:1140600918 server:770524 sjr:1141371442
ID:2207 queue:1141844515 server:765969 sjr:1142610484
ID:2208 queue:1143202719 server:748820 sjr:1143951539
ID:2209 queue:1144523155 server:767522 sjr:1145290677
ID:2210 queue:1145077285 server:749227 sjr:1145826512
ID:2211 queue:1145895895 server:765872 sjr:1146661767
ID:2212 queue:1147186240 server:775693 sjr:1147961933
ID:2213 queue:1148523967 server:769631 sjr:1149293598
ID:2214 queue:1149346487 server:746638 sjr:1150093125
ID:2215 queue:1150701754 server:769844 sjr:1151471598
ID:2216 queue:1152053540 server:750891 sjr:1152804431
ID:2217 queue:1153323266 server:790995 sjr:1154114261
ID:2218 queue:1153792770 server:749176 sjr:1154541946
ID:2219 queue:1154964027 server:765930 sjr:1155729957
ID:2220 queue:1156270696 server:750955 sjr:1157021651
ID:2221 queue:1157088447 server:768710 sjr:1157857157
ID:2222 queue:1157788392 server:776072 sjr:1158564464
ID:2223 queue:1159210041 server:771843 sjr:1159981884
ID:2224 queue:1160499520 server:754016 sjr:1161253536
ID:2225 queue:1161803126 server:770301 sjr:1162573427
ID:2226 queue:1162178932 server:748267 sjr:1162927199
ID:2227 queue:1163552024 server:793344 sjr:1164345368
ID:2228 queue:1163615811 server:743686 sjr:1164359497
ID:2229 queue:1163927263 server:765398 sjr:1164692661
ID:2230 queue:1165150594 server:747225 sjr:1165897819
ID:2231 queue:1166453654 server:767503 sjr:1167221157
ID:2232 queue:1167783831 server:745434 sjr:1168529265
ID:2233 queue:1167053912 server:790889 sjr:1167844801
ID:2234 queue:1167980304 server:750097 sjr:1168730401
ID:2235 queue:1167989029 server:764929 sjr:1168753958
ID:2236 queue:1168653742 server:749708 sjr:1169403450
ID:2237 queue:1169763480 server:766398 sjr:1170529878
ID:2238 queue:1171111502 server:774872 sjr:1171886374
ID:2239 queue:1172329802 server:769680 sjr:1173099482
ID:2240 queue:1173522552 server:750274 sjr:1174272826
ID:2241 queue:1174278023 server:766345 sjr:1175044368
ID:2242 queue:1174954121 server:748586 sjr:1175702707
ID:2243 queue:1175349195 server:797943 sjr:1176147138
ID:2244 queue:1176526767 server:748291 sjr:1177275058
ID:2245 queue:1177394764 server:767046 sjr:1178161810
ID:2246 queue:1178324214 server:744631 sjr:1179068845
ID:2247 queue:1179399754 server:770188 sjr:1180169942
ID:2248 queue:1180087411 server:775648 sjr:1180863059
ID:2249 queue:1181360542 server:769609 sjr:1182130151
ID:2250 queue:1182735106 server:748248 sjr:1183483354
ID:2251 queue:1183716510 server:770815 sjr:1184487325
ID:2252 queue:1184958974 server:748180 sjr:1185707154
ID:2253 queue:1186283194 server:767566 sjr:1187050760
ID:2254 queue:1187066296 server:779621 sjr:1187845917
ID:2255 queue:1187799870 server:772146 sjr:1188572016
ID:2256 queue:1189190511 server:748042 sjr:1189938553
ID:2257 queue:1190003978 server:768438 sjr:1190772416
ID:2258 queue:1188656252 server:747634 sjr:1189403886
ID:2259 queue:1189619857 server:799047 sjr:1190418904
ID:2260 queue:1191058271 server:749349 sjr:1191807620
ID:2261 queue:1192145920 server:768168 sjr:1192914088
ID:2262 queue:1193299427 server:750975 sjr:1194050402
ID:2263 queue:1194582625 server:772199 sjr:1195354824
ID:2264 queue:1195105095 server:776587 sjr:1195881682
ID:2265 queue:1196431757 server:768448 sjr:1197200205
ID:2266 queue:1197001686 server:748121 sjr:1197749807
ID:2267 queue:1198087534 server:761924 sjr:1198849458
ID:2268 queue:1199251694 server:747606 sjr:1199999300
ID:2269 queue:1200454493 server:767153 sjr:1201221646
ID:2270 queue:1200664818 server:772337 sjr:1201437155
ID:2271 queue:1201731544 server:763211 sjr:1202494755
ID:2272 queue:1203064298 server:748891 sjr:1203813189
ID:2273 queue:1203040355 server:768744 sjr:1203809099
ID:2274 queue:1204110525 server:745545 sjr:1204856070
ID:2275 queue:1205171105 server:792413 sjr:1205963518
ID:2276 queue:1206454142 server:745715 sjr:1207199857
ID:2277 queue:1206682807 server:766194 sjr:1207449001
ID:2278 queue:1208076306 server:748263 sjr:1208824569
ID:2279 queue:1208313393 server:769292 sjr:1209082685
ID:2280 queue:1209351465 server:778030 sjr:1210129495
ID:2281 queue:1210598397 server:765808 sjr:1211364205
ID:2282 queue:1211787653 server:751002 sjr:1212538655
ID:2283 queue:1211575950 server:768475 sjr:1212344425
ID:2284 queue:1212457527 server:747834 sjr:1213205361
ID:2285 queue:1213418785 server:790271 sjr:1214209056
ID:2286 queue:1214495942 server:750981 sjr:1215246923
ID:2287 queue:1215666157 server:767546 sjr:1216433703
ID:2288 queue:1216697367 server:750203 sjr:1217447570
ID:2289 queue:1218075500 server:768177 sjr:1218843677
ID:2290 queue:1219442189 server:752867 sjr:1220195056
ID:2291 queue:1220412896 server:792157 sjr:1221205053
ID:2292 queue:1221344284 server:747697 sjr:1222091981
ID:2293 queue:1221897141 server:770074 sjr:1222667215
ID:2294 queue:1222816156 server:752139 sjr:1223568295
ID:2295 queue:1224128690 server:769371 sjr:1224898061
ID:2296 queue:1224868521 server:772861 sjr:1225641382
ID:2297 queue:1225738803 server:764287 sjr:1226503090
ID:2298 queue:1226482414 server:753713 sjr:1227236127
ID:2299 queue:1226548515 server:768489 sjr:1227317004
ID:2300 queue:1227937291 server:750654 sjr:1228687945
ID:2301 queue:1229115411 server:792704 sjr:1229908115
ID:2302 queue:1230463352 server:754964 sjr:1231218316
Exiting @ tick 3287939723000 because user interrupt received
