
---------- Begin Simulation Statistics ----------
simSeconds                                   7.502134                       # Number of seconds simulated (Second)
simTicks                                 7502133984000                       # Number of ticks simulated (Tick)
finalTick                                7502133984000                       # Number of ticks from beginning of simulation (restored from checkpoints and never reset) (Tick)
simFreq                                  1000000000000                       # The number of ticks per simulated second ((Tick/Second))
hostSeconds                                    257.24                       # Real time elapsed on the host (Second)
hostTickRate                              29164320553                       # The number of ticks simulated per host second (ticks/s) ((Tick/Second))
hostMemory                                   18084488                       # Number of bytes of host memory used (Byte)
simInsts                                    790339265                       # Number of instructions simulated (Count)
simOps                                      794824282                       # Number of ops (including micro ops) simulated (Count)
hostInstRate                                  3072418                       # Simulator instruction rate (inst/s) ((Count/Second))
hostOpRate                                    3089853                       # Simulator op (including micro ops) rate (op/s) ((Count/Second))
system.bridge.power_state.pwrStateResidencyTicks::UNDEFINED 7502133984000                       # Cumulative time (in ticks) in various power states (Tick)
system.clk_domain.clock                          1000                       # Clock period in ticks (Tick)
system.cpu0.numCycles                      9684991507                       # Number of cpu cycles simulated (Cycle)
system.cpu0.numWorkItemsStarted                     0                       # Number of work items this cpu started (Count)
system.cpu0.numWorkItemsCompleted                   0                       # Number of work items this cpu completed (Count)
system.cpu0.committedInsts                  647552404                       # Number of instructions committed (Count)
system.cpu0.numVMExits                         215686                       # total number of KVM exits (Count)
system.cpu0.numVMHalfEntries                        0                       # number of KVM entries to finalize pending operations (Count)
system.cpu0.numExitSignal                       10408                       # exits due to signal delivery (Count)
system.cpu0.numMMIO                            205278                       # number of VM exits due to memory mapped IO (Count)
system.cpu0.numCoalescedMMIO                        0                       # number of coalesced memory mapped IO requests (Count)
system.cpu0.numIO                                   0                       # number of VM exits due to legacy IO (Count)
system.cpu0.numHalt                                 0                       # number of VM exits due to wait for interrupt instructions (Count)
system.cpu0.numInterrupts                           0                       # number of interrupts delivered (Count)
system.cpu0.numHypercalls                           0                       # number of hypercalls (Count)
system.cpu0.dcache.demandHits::switch_cpus0.data      8810410                       # number of demand (read+write) hits (Count)
system.cpu0.dcache.demandHits::total          8810410                       # number of demand (read+write) hits (Count)
system.cpu0.dcache.overallHits::switch_cpus0.data      8811685                       # number of overall hits (Count)
system.cpu0.dcache.overallHits::total         8811685                       # number of overall hits (Count)
system.cpu0.dcache.demandMisses::switch_cpus0.data       291380                       # number of demand (read+write) misses (Count)
system.cpu0.dcache.demandMisses::total         291380                       # number of demand (read+write) misses (Count)
system.cpu0.dcache.overallMisses::switch_cpus0.data       291884                       # number of overall misses (Count)
system.cpu0.dcache.overallMisses::total        291884                       # number of overall misses (Count)
system.cpu0.dcache.demandMissLatency::switch_cpus0.data  17346124253                       # number of demand (read+write) miss ticks (Tick)
system.cpu0.dcache.demandMissLatency::total  17346124253                       # number of demand (read+write) miss ticks (Tick)
system.cpu0.dcache.overallMissLatency::switch_cpus0.data  17346124253                       # number of overall miss ticks (Tick)
system.cpu0.dcache.overallMissLatency::total  17346124253                       # number of overall miss ticks (Tick)
system.cpu0.dcache.demandAccesses::switch_cpus0.data      9101790                       # number of demand (read+write) accesses (Count)
system.cpu0.dcache.demandAccesses::total      9101790                       # number of demand (read+write) accesses (Count)
system.cpu0.dcache.overallAccesses::switch_cpus0.data      9103569                       # number of overall (read+write) accesses (Count)
system.cpu0.dcache.overallAccesses::total      9103569                       # number of overall (read+write) accesses (Count)
system.cpu0.dcache.demandMissRate::switch_cpus0.data     0.032013                       # miss rate for demand accesses (Ratio)
system.cpu0.dcache.demandMissRate::total     0.032013                       # miss rate for demand accesses (Ratio)
system.cpu0.dcache.overallMissRate::switch_cpus0.data     0.032063                       # miss rate for overall accesses (Ratio)
system.cpu0.dcache.overallMissRate::total     0.032063                       # miss rate for overall accesses (Ratio)
system.cpu0.dcache.demandAvgMissLatency::switch_cpus0.data 59530.936416                       # average overall miss latency in ticks ((Tick/Count))
system.cpu0.dcache.demandAvgMissLatency::total 59530.936416                       # average overall miss latency in ticks ((Tick/Count))
system.cpu0.dcache.overallAvgMissLatency::switch_cpus0.data 59428.143554                       # average overall miss latency ((Tick/Count))
system.cpu0.dcache.overallAvgMissLatency::total 59428.143554                       # average overall miss latency ((Tick/Count))
system.cpu0.dcache.blockedCycles::no_mshrs      1171367                       # number of cycles access was blocked (Cycle)
system.cpu0.dcache.blockedCycles::no_targets          208                       # number of cycles access was blocked (Cycle)
system.cpu0.dcache.blockedCauses::no_mshrs        31148                       # number of times access was blocked (Count)
system.cpu0.dcache.blockedCauses::no_targets            5                       # number of times access was blocked (Count)
system.cpu0.dcache.avgBlocked::no_mshrs     37.606492                       # average number of cycles each access was blocked ((Cycle/Count))
system.cpu0.dcache.avgBlocked::no_targets    41.600000                       # average number of cycles each access was blocked ((Cycle/Count))
system.cpu0.dcache.writebacks::writebacks        43327                       # number of writebacks (Count)
system.cpu0.dcache.writebacks::total            43327                       # number of writebacks (Count)
system.cpu0.dcache.demandMshrHits::switch_cpus0.data       200762                       # number of demand (read+write) MSHR hits (Count)
system.cpu0.dcache.demandMshrHits::total       200762                       # number of demand (read+write) MSHR hits (Count)
system.cpu0.dcache.overallMshrHits::switch_cpus0.data       200762                       # number of overall MSHR hits (Count)
system.cpu0.dcache.overallMshrHits::total       200762                       # number of overall MSHR hits (Count)
system.cpu0.dcache.demandMshrMisses::switch_cpus0.data        90618                       # number of demand (read+write) MSHR misses (Count)
system.cpu0.dcache.demandMshrMisses::total        90618                       # number of demand (read+write) MSHR misses (Count)
system.cpu0.dcache.overallMshrMisses::switch_cpus0.data        91115                       # number of overall MSHR misses (Count)
system.cpu0.dcache.overallMshrMisses::total        91115                       # number of overall MSHR misses (Count)
system.cpu0.dcache.overallMshrUncacheable::switch_cpus0.data         3853                       # number of overall MSHR uncacheable misses (Count)
system.cpu0.dcache.overallMshrUncacheable::total         3853                       # number of overall MSHR uncacheable misses (Count)
system.cpu0.dcache.demandMshrMissLatency::switch_cpus0.data   5009738111                       # number of demand (read+write) MSHR miss ticks (Tick)
system.cpu0.dcache.demandMshrMissLatency::total   5009738111                       # number of demand (read+write) MSHR miss ticks (Tick)
system.cpu0.dcache.overallMshrMissLatency::switch_cpus0.data   5040837611                       # number of overall MSHR miss ticks (Tick)
system.cpu0.dcache.overallMshrMissLatency::total   5040837611                       # number of overall MSHR miss ticks (Tick)
system.cpu0.dcache.overallMshrUncacheableLatency::switch_cpus0.data    235504500                       # number of overall MSHR uncacheable ticks (Tick)
system.cpu0.dcache.overallMshrUncacheableLatency::total    235504500                       # number of overall MSHR uncacheable ticks (Tick)
system.cpu0.dcache.demandMshrMissRate::switch_cpus0.data     0.009956                       # mshr miss ratio for demand accesses (Ratio)
system.cpu0.dcache.demandMshrMissRate::total     0.009956                       # mshr miss ratio for demand accesses (Ratio)
system.cpu0.dcache.overallMshrMissRate::switch_cpus0.data     0.010009                       # mshr miss ratio for overall accesses (Ratio)
system.cpu0.dcache.overallMshrMissRate::total     0.010009                       # mshr miss ratio for overall accesses (Ratio)
system.cpu0.dcache.demandAvgMshrMissLatency::switch_cpus0.data 55284.139034                       # average overall mshr miss latency ((Tick/Count))
system.cpu0.dcache.demandAvgMshrMissLatency::total 55284.139034                       # average overall mshr miss latency ((Tick/Count))
system.cpu0.dcache.overallAvgMshrMissLatency::switch_cpus0.data 55323.905076                       # average overall mshr miss latency ((Tick/Count))
system.cpu0.dcache.overallAvgMshrMissLatency::total 55323.905076                       # average overall mshr miss latency ((Tick/Count))
system.cpu0.dcache.overallAvgMshrUncacheableLatency::switch_cpus0.data 61122.372178                       # average overall mshr uncacheable latency ((Tick/Count))
system.cpu0.dcache.overallAvgMshrUncacheableLatency::total 61122.372178                       # average overall mshr uncacheable latency ((Tick/Count))
system.cpu0.dcache.replacements                 88957                       # number of replacements (Count)
system.cpu0.dcache.CleanSharedReq.missLatency::switch_cpus0.data        52500                       # number of CleanSharedReq miss ticks (Tick)
system.cpu0.dcache.CleanSharedReq.missLatency::total        52500                       # number of CleanSharedReq miss ticks (Tick)
system.cpu0.dcache.CleanSharedReq.avgMissLatency::switch_cpus0.data          inf                       # average CleanSharedReq miss latency ((Tick/Count))
system.cpu0.dcache.CleanSharedReq.avgMissLatency::total          inf                       # average CleanSharedReq miss latency ((Tick/Count))
system.cpu0.dcache.CleanSharedReq.mshrMisses::switch_cpus0.data        47040                       # number of CleanSharedReq MSHR misses (Count)
system.cpu0.dcache.CleanSharedReq.mshrMisses::total        47040                       # number of CleanSharedReq MSHR misses (Count)
system.cpu0.dcache.CleanSharedReq.mshrMissLatency::switch_cpus0.data     71959198                       # number of CleanSharedReq MSHR miss ticks (Tick)
system.cpu0.dcache.CleanSharedReq.mshrMissLatency::total     71959198                       # number of CleanSharedReq MSHR miss ticks (Tick)
system.cpu0.dcache.CleanSharedReq.mshrMissRate::switch_cpus0.data          inf                       # mshr miss rate for CleanSharedReq accesses (Ratio)
system.cpu0.dcache.CleanSharedReq.mshrMissRate::total          inf                       # mshr miss rate for CleanSharedReq accesses (Ratio)
system.cpu0.dcache.CleanSharedReq.avgMshrMissLatency::switch_cpus0.data  1529.744855                       # average CleanSharedReq mshr miss latency ((Tick/Count))
system.cpu0.dcache.CleanSharedReq.avgMshrMissLatency::total  1529.744855                       # average CleanSharedReq mshr miss latency ((Tick/Count))
system.cpu0.dcache.LoadLockedReq.hits::switch_cpus0.data            2                       # number of LoadLockedReq hits (Count)
system.cpu0.dcache.LoadLockedReq.hits::total            2                       # number of LoadLockedReq hits (Count)
system.cpu0.dcache.LoadLockedReq.accesses::switch_cpus0.data            2                       # number of LoadLockedReq accesses(hits+misses) (Count)
system.cpu0.dcache.LoadLockedReq.accesses::total            2                       # number of LoadLockedReq accesses(hits+misses) (Count)
system.cpu0.dcache.ReadReq.hits::switch_cpus0.data      5523438                       # number of ReadReq hits (Count)
system.cpu0.dcache.ReadReq.hits::total        5523438                       # number of ReadReq hits (Count)
system.cpu0.dcache.ReadReq.misses::switch_cpus0.data       192996                       # number of ReadReq misses (Count)
system.cpu0.dcache.ReadReq.misses::total       192996                       # number of ReadReq misses (Count)
system.cpu0.dcache.ReadReq.missLatency::switch_cpus0.data  11903777000                       # number of ReadReq miss ticks (Tick)
system.cpu0.dcache.ReadReq.missLatency::total  11903777000                       # number of ReadReq miss ticks (Tick)
system.cpu0.dcache.ReadReq.accesses::switch_cpus0.data      5716434                       # number of ReadReq accesses(hits+misses) (Count)
system.cpu0.dcache.ReadReq.accesses::total      5716434                       # number of ReadReq accesses(hits+misses) (Count)
system.cpu0.dcache.ReadReq.missRate::switch_cpus0.data     0.033762                       # miss rate for ReadReq accesses (Ratio)
system.cpu0.dcache.ReadReq.missRate::total     0.033762                       # miss rate for ReadReq accesses (Ratio)
system.cpu0.dcache.ReadReq.avgMissLatency::switch_cpus0.data 61678.879355                       # average ReadReq miss latency ((Tick/Count))
system.cpu0.dcache.ReadReq.avgMissLatency::total 61678.879355                       # average ReadReq miss latency ((Tick/Count))
system.cpu0.dcache.ReadReq.mshrHits::switch_cpus0.data       127632                       # number of ReadReq MSHR hits (Count)
system.cpu0.dcache.ReadReq.mshrHits::total       127632                       # number of ReadReq MSHR hits (Count)
system.cpu0.dcache.ReadReq.mshrMisses::switch_cpus0.data        65364                       # number of ReadReq MSHR misses (Count)
system.cpu0.dcache.ReadReq.mshrMisses::total        65364                       # number of ReadReq MSHR misses (Count)
system.cpu0.dcache.ReadReq.mshrUncacheable::switch_cpus0.data         3648                       # number of ReadReq MSHR uncacheable (Count)
system.cpu0.dcache.ReadReq.mshrUncacheable::total         3648                       # number of ReadReq MSHR uncacheable (Count)
system.cpu0.dcache.ReadReq.mshrMissLatency::switch_cpus0.data   3598965502                       # number of ReadReq MSHR miss ticks (Tick)
system.cpu0.dcache.ReadReq.mshrMissLatency::total   3598965502                       # number of ReadReq MSHR miss ticks (Tick)
system.cpu0.dcache.ReadReq.mshrUncacheableLatency::switch_cpus0.data    235504500                       # number of ReadReq MSHR uncacheable ticks (Tick)
system.cpu0.dcache.ReadReq.mshrUncacheableLatency::total    235504500                       # number of ReadReq MSHR uncacheable ticks (Tick)
system.cpu0.dcache.ReadReq.mshrMissRate::switch_cpus0.data     0.011434                       # mshr miss rate for ReadReq accesses (Ratio)
system.cpu0.dcache.ReadReq.mshrMissRate::total     0.011434                       # mshr miss rate for ReadReq accesses (Ratio)
system.cpu0.dcache.ReadReq.avgMshrMissLatency::switch_cpus0.data 55060.362004                       # average ReadReq mshr miss latency ((Tick/Count))
system.cpu0.dcache.ReadReq.avgMshrMissLatency::total 55060.362004                       # average ReadReq mshr miss latency ((Tick/Count))
system.cpu0.dcache.ReadReq.avgMshrUncacheableLatency::switch_cpus0.data 64557.154605                       # average ReadReq mshr uncacheable latency ((Tick/Count))
system.cpu0.dcache.ReadReq.avgMshrUncacheableLatency::total 64557.154605                       # average ReadReq mshr uncacheable latency ((Tick/Count))
system.cpu0.dcache.SoftPFExReq.hits::switch_cpus0.data         1127                       # number of SoftPFExReq hits (Count)
system.cpu0.dcache.SoftPFExReq.hits::total         1127                       # number of SoftPFExReq hits (Count)
system.cpu0.dcache.SoftPFExReq.accesses::switch_cpus0.data         1127                       # number of SoftPFExReq accesses(hits+misses) (Count)
system.cpu0.dcache.SoftPFExReq.accesses::total         1127                       # number of SoftPFExReq accesses(hits+misses) (Count)
system.cpu0.dcache.SoftPFReq.hits::switch_cpus0.data          148                       # number of SoftPFReq hits (Count)
system.cpu0.dcache.SoftPFReq.hits::total          148                       # number of SoftPFReq hits (Count)
system.cpu0.dcache.SoftPFReq.misses::switch_cpus0.data          504                       # number of SoftPFReq misses (Count)
system.cpu0.dcache.SoftPFReq.misses::total          504                       # number of SoftPFReq misses (Count)
system.cpu0.dcache.SoftPFReq.accesses::switch_cpus0.data          652                       # number of SoftPFReq accesses(hits+misses) (Count)
system.cpu0.dcache.SoftPFReq.accesses::total          652                       # number of SoftPFReq accesses(hits+misses) (Count)
system.cpu0.dcache.SoftPFReq.missRate::switch_cpus0.data     0.773006                       # miss rate for SoftPFReq accesses (Ratio)
system.cpu0.dcache.SoftPFReq.missRate::total     0.773006                       # miss rate for SoftPFReq accesses (Ratio)
system.cpu0.dcache.SoftPFReq.mshrMisses::switch_cpus0.data          497                       # number of SoftPFReq MSHR misses (Count)
system.cpu0.dcache.SoftPFReq.mshrMisses::total          497                       # number of SoftPFReq MSHR misses (Count)
system.cpu0.dcache.SoftPFReq.mshrMissLatency::switch_cpus0.data     31099500                       # number of SoftPFReq MSHR miss ticks (Tick)
system.cpu0.dcache.SoftPFReq.mshrMissLatency::total     31099500                       # number of SoftPFReq MSHR miss ticks (Tick)
system.cpu0.dcache.SoftPFReq.mshrMissRate::switch_cpus0.data     0.762270                       # mshr miss rate for SoftPFReq accesses (Ratio)
system.cpu0.dcache.SoftPFReq.mshrMissRate::total     0.762270                       # mshr miss rate for SoftPFReq accesses (Ratio)
system.cpu0.dcache.SoftPFReq.avgMshrMissLatency::switch_cpus0.data 62574.446680                       # average SoftPFReq mshr miss latency ((Tick/Count))
system.cpu0.dcache.SoftPFReq.avgMshrMissLatency::total 62574.446680                       # average SoftPFReq mshr miss latency ((Tick/Count))
system.cpu0.dcache.StoreCondReq.hits::switch_cpus0.data            1                       # number of StoreCondReq hits (Count)
system.cpu0.dcache.StoreCondReq.hits::total            1                       # number of StoreCondReq hits (Count)
system.cpu0.dcache.StoreCondReq.misses::switch_cpus0.data            1                       # number of StoreCondReq misses (Count)
system.cpu0.dcache.StoreCondReq.misses::total            1                       # number of StoreCondReq misses (Count)
system.cpu0.dcache.StoreCondReq.missLatency::switch_cpus0.data        13000                       # number of StoreCondReq miss ticks (Tick)
system.cpu0.dcache.StoreCondReq.missLatency::total        13000                       # number of StoreCondReq miss ticks (Tick)
system.cpu0.dcache.StoreCondReq.accesses::switch_cpus0.data            2                       # number of StoreCondReq accesses(hits+misses) (Count)
system.cpu0.dcache.StoreCondReq.accesses::total            2                       # number of StoreCondReq accesses(hits+misses) (Count)
system.cpu0.dcache.StoreCondReq.missRate::switch_cpus0.data     0.500000                       # miss rate for StoreCondReq accesses (Ratio)
system.cpu0.dcache.StoreCondReq.missRate::total     0.500000                       # miss rate for StoreCondReq accesses (Ratio)
system.cpu0.dcache.StoreCondReq.avgMissLatency::switch_cpus0.data        13000                       # average StoreCondReq miss latency ((Tick/Count))
system.cpu0.dcache.StoreCondReq.avgMissLatency::total        13000                       # average StoreCondReq miss latency ((Tick/Count))
system.cpu0.dcache.StoreCondReq.mshrMisses::switch_cpus0.data            1                       # number of StoreCondReq MSHR misses (Count)
system.cpu0.dcache.StoreCondReq.mshrMisses::total            1                       # number of StoreCondReq MSHR misses (Count)
system.cpu0.dcache.StoreCondReq.mshrMissLatency::switch_cpus0.data        12000                       # number of StoreCondReq MSHR miss ticks (Tick)
system.cpu0.dcache.StoreCondReq.mshrMissLatency::total        12000                       # number of StoreCondReq MSHR miss ticks (Tick)
system.cpu0.dcache.StoreCondReq.mshrMissRate::switch_cpus0.data     0.500000                       # mshr miss rate for StoreCondReq accesses (Ratio)
system.cpu0.dcache.StoreCondReq.mshrMissRate::total     0.500000                       # mshr miss rate for StoreCondReq accesses (Ratio)
system.cpu0.dcache.StoreCondReq.avgMshrMissLatency::switch_cpus0.data        12000                       # average StoreCondReq mshr miss latency ((Tick/Count))
system.cpu0.dcache.StoreCondReq.avgMshrMissLatency::total        12000                       # average StoreCondReq mshr miss latency ((Tick/Count))
system.cpu0.dcache.SwapReq.hits::switch_cpus0.data        48783                       # number of SwapReq hits (Count)
system.cpu0.dcache.SwapReq.hits::total          48783                       # number of SwapReq hits (Count)
system.cpu0.dcache.SwapReq.misses::switch_cpus0.data         3925                       # number of SwapReq misses (Count)
system.cpu0.dcache.SwapReq.misses::total         3925                       # number of SwapReq misses (Count)
system.cpu0.dcache.SwapReq.missLatency::switch_cpus0.data     85552000                       # number of SwapReq miss ticks (Tick)
system.cpu0.dcache.SwapReq.missLatency::total     85552000                       # number of SwapReq miss ticks (Tick)
system.cpu0.dcache.SwapReq.accesses::switch_cpus0.data        52708                       # number of SwapReq accesses(hits+misses) (Count)
system.cpu0.dcache.SwapReq.accesses::total        52708                       # number of SwapReq accesses(hits+misses) (Count)
system.cpu0.dcache.SwapReq.missRate::switch_cpus0.data     0.074467                       # miss rate for SwapReq accesses (Ratio)
system.cpu0.dcache.SwapReq.missRate::total     0.074467                       # miss rate for SwapReq accesses (Ratio)
system.cpu0.dcache.SwapReq.avgMissLatency::switch_cpus0.data 21796.687898                       # average SwapReq miss latency ((Tick/Count))
system.cpu0.dcache.SwapReq.avgMissLatency::total 21796.687898                       # average SwapReq miss latency ((Tick/Count))
system.cpu0.dcache.SwapReq.mshrHits::switch_cpus0.data            1                       # number of SwapReq MSHR hits (Count)
system.cpu0.dcache.SwapReq.mshrHits::total            1                       # number of SwapReq MSHR hits (Count)
system.cpu0.dcache.SwapReq.mshrMisses::switch_cpus0.data         3924                       # number of SwapReq MSHR misses (Count)
system.cpu0.dcache.SwapReq.mshrMisses::total         3924                       # number of SwapReq MSHR misses (Count)
system.cpu0.dcache.SwapReq.mshrMissLatency::switch_cpus0.data     81627000                       # number of SwapReq MSHR miss ticks (Tick)
system.cpu0.dcache.SwapReq.mshrMissLatency::total     81627000                       # number of SwapReq MSHR miss ticks (Tick)
system.cpu0.dcache.SwapReq.mshrMissRate::switch_cpus0.data     0.074448                       # mshr miss rate for SwapReq accesses (Ratio)
system.cpu0.dcache.SwapReq.mshrMissRate::total     0.074448                       # mshr miss rate for SwapReq accesses (Ratio)
system.cpu0.dcache.SwapReq.avgMshrMissLatency::switch_cpus0.data 20801.987768                       # average SwapReq mshr miss latency ((Tick/Count))
system.cpu0.dcache.SwapReq.avgMshrMissLatency::total 20801.987768                       # average SwapReq mshr miss latency ((Tick/Count))
system.cpu0.dcache.WriteLineReq.hits::switch_cpus0.data         1767                       # number of WriteLineReq hits (Count)
system.cpu0.dcache.WriteLineReq.hits::total         1767                       # number of WriteLineReq hits (Count)
system.cpu0.dcache.WriteLineReq.misses::switch_cpus0.data         6808                       # number of WriteLineReq misses (Count)
system.cpu0.dcache.WriteLineReq.misses::total         6808                       # number of WriteLineReq misses (Count)
system.cpu0.dcache.WriteLineReq.missLatency::switch_cpus0.data    369620942                       # number of WriteLineReq miss ticks (Tick)
system.cpu0.dcache.WriteLineReq.missLatency::total    369620942                       # number of WriteLineReq miss ticks (Tick)
system.cpu0.dcache.WriteLineReq.accesses::switch_cpus0.data         8575                       # number of WriteLineReq accesses(hits+misses) (Count)
system.cpu0.dcache.WriteLineReq.accesses::total         8575                       # number of WriteLineReq accesses(hits+misses) (Count)
system.cpu0.dcache.WriteLineReq.missRate::switch_cpus0.data     0.793936                       # miss rate for WriteLineReq accesses (Ratio)
system.cpu0.dcache.WriteLineReq.missRate::total     0.793936                       # miss rate for WriteLineReq accesses (Ratio)
system.cpu0.dcache.WriteLineReq.avgMissLatency::switch_cpus0.data 54292.147767                       # average WriteLineReq miss latency ((Tick/Count))
system.cpu0.dcache.WriteLineReq.avgMissLatency::total 54292.147767                       # average WriteLineReq miss latency ((Tick/Count))
system.cpu0.dcache.WriteLineReq.mshrHits::switch_cpus0.data           34                       # number of WriteLineReq MSHR hits (Count)
system.cpu0.dcache.WriteLineReq.mshrHits::total           34                       # number of WriteLineReq MSHR hits (Count)
system.cpu0.dcache.WriteLineReq.mshrMisses::switch_cpus0.data         6774                       # number of WriteLineReq MSHR misses (Count)
system.cpu0.dcache.WriteLineReq.mshrMisses::total         6774                       # number of WriteLineReq MSHR misses (Count)
system.cpu0.dcache.WriteLineReq.mshrMissLatency::switch_cpus0.data    360539942                       # number of WriteLineReq MSHR miss ticks (Tick)
system.cpu0.dcache.WriteLineReq.mshrMissLatency::total    360539942                       # number of WriteLineReq MSHR miss ticks (Tick)
system.cpu0.dcache.WriteLineReq.mshrMissRate::switch_cpus0.data     0.789971                       # mshr miss rate for WriteLineReq accesses (Ratio)
system.cpu0.dcache.WriteLineReq.mshrMissRate::total     0.789971                       # mshr miss rate for WriteLineReq accesses (Ratio)
system.cpu0.dcache.WriteLineReq.avgMshrMissLatency::switch_cpus0.data 53224.083555                       # average WriteLineReq mshr miss latency ((Tick/Count))
system.cpu0.dcache.WriteLineReq.avgMshrMissLatency::total 53224.083555                       # average WriteLineReq mshr miss latency ((Tick/Count))
system.cpu0.dcache.WriteReq.hits::switch_cpus0.data      3285205                       # number of WriteReq hits (Count)
system.cpu0.dcache.WriteReq.hits::total       3285205                       # number of WriteReq hits (Count)
system.cpu0.dcache.WriteReq.misses::switch_cpus0.data        91576                       # number of WriteReq misses (Count)
system.cpu0.dcache.WriteReq.misses::total        91576                       # number of WriteReq misses (Count)
system.cpu0.dcache.WriteReq.missLatency::switch_cpus0.data   5072726311                       # number of WriteReq miss ticks (Tick)
system.cpu0.dcache.WriteReq.missLatency::total   5072726311                       # number of WriteReq miss ticks (Tick)
system.cpu0.dcache.WriteReq.accesses::switch_cpus0.data      3376781                       # number of WriteReq accesses(hits+misses) (Count)
system.cpu0.dcache.WriteReq.accesses::total      3376781                       # number of WriteReq accesses(hits+misses) (Count)
system.cpu0.dcache.WriteReq.missRate::switch_cpus0.data     0.027119                       # miss rate for WriteReq accesses (Ratio)
system.cpu0.dcache.WriteReq.missRate::total     0.027119                       # miss rate for WriteReq accesses (Ratio)
system.cpu0.dcache.WriteReq.avgMissLatency::switch_cpus0.data 55393.621811                       # average WriteReq miss latency ((Tick/Count))
system.cpu0.dcache.WriteReq.avgMissLatency::total 55393.621811                       # average WriteReq miss latency ((Tick/Count))
system.cpu0.dcache.WriteReq.mshrHits::switch_cpus0.data        73096                       # number of WriteReq MSHR hits (Count)
system.cpu0.dcache.WriteReq.mshrHits::total        73096                       # number of WriteReq MSHR hits (Count)
system.cpu0.dcache.WriteReq.mshrMisses::switch_cpus0.data        18480                       # number of WriteReq MSHR misses (Count)
system.cpu0.dcache.WriteReq.mshrMisses::total        18480                       # number of WriteReq MSHR misses (Count)
system.cpu0.dcache.WriteReq.mshrUncacheable::switch_cpus0.data          205                       # number of WriteReq MSHR uncacheable (Count)
system.cpu0.dcache.WriteReq.mshrUncacheable::total          205                       # number of WriteReq MSHR uncacheable (Count)
system.cpu0.dcache.WriteReq.mshrMissLatency::switch_cpus0.data   1050232667                       # number of WriteReq MSHR miss ticks (Tick)
system.cpu0.dcache.WriteReq.mshrMissLatency::total   1050232667                       # number of WriteReq MSHR miss ticks (Tick)
system.cpu0.dcache.WriteReq.mshrMissRate::switch_cpus0.data     0.005473                       # mshr miss rate for WriteReq accesses (Ratio)
system.cpu0.dcache.WriteReq.mshrMissRate::total     0.005473                       # mshr miss rate for WriteReq accesses (Ratio)
system.cpu0.dcache.WriteReq.avgMshrMissLatency::switch_cpus0.data 56830.772024                       # average WriteReq mshr miss latency ((Tick/Count))
system.cpu0.dcache.WriteReq.avgMshrMissLatency::total 56830.772024                       # average WriteReq mshr miss latency ((Tick/Count))
system.cpu0.dcache.power_state.pwrStateResidencyTicks::UNDEFINED 7502133984000                       # Cumulative time (in ticks) in various power states (Tick)
system.cpu0.dcache.tags.tagsInUse            2.044220                       # Average ticks per tags in use ((Tick/Count))
system.cpu0.dcache.tags.totalRefs             8957903                       # Total number of references to valid blocks. (Count)
system.cpu0.dcache.tags.sampledRefs             90745                       # Sample count of references to valid blocks. (Count)
system.cpu0.dcache.tags.avgRefs             98.715114                       # Average number of references to valid blocks. ((Count/Count))
system.cpu0.dcache.tags.warmupTick       2716618170500                       # The tick when the warmup percentage was hit. (Tick)
system.cpu0.dcache.tags.occupancies::switch_cpus0.data     2.044220                       # Average occupied blocks per tick, per requestor ((Count/Tick))
system.cpu0.dcache.tags.avgOccs::switch_cpus0.data     0.001996                       # Average percentage of cache occupancy ((Ratio/Tick))
system.cpu0.dcache.tags.avgOccs::total       0.001996                       # Average percentage of cache occupancy ((Ratio/Tick))
system.cpu0.dcache.tags.tagAccesses          36904029                       # Number of tag accesses (Count)
system.cpu0.dcache.tags.dataAccesses         36904029                       # Number of data accesses (Count)
system.cpu0.dcache.tags.power_state.pwrStateResidencyTicks::UNDEFINED 7502133984000                       # Cumulative time (in ticks) in various power states (Tick)
system.cpu0.icache.demandHits::switch_cpus0.inst      4905244                       # number of demand (read+write) hits (Count)
system.cpu0.icache.demandHits::total          4905244                       # number of demand (read+write) hits (Count)
system.cpu0.icache.overallHits::switch_cpus0.inst      4905244                       # number of overall hits (Count)
system.cpu0.icache.overallHits::total         4905244                       # number of overall hits (Count)
system.cpu0.icache.demandMisses::switch_cpus0.inst       132230                       # number of demand (read+write) misses (Count)
system.cpu0.icache.demandMisses::total         132230                       # number of demand (read+write) misses (Count)
system.cpu0.icache.overallMisses::switch_cpus0.inst       132230                       # number of overall misses (Count)
system.cpu0.icache.overallMisses::total        132230                       # number of overall misses (Count)
system.cpu0.icache.demandMissLatency::switch_cpus0.inst   3127941484                       # number of demand (read+write) miss ticks (Tick)
system.cpu0.icache.demandMissLatency::total   3127941484                       # number of demand (read+write) miss ticks (Tick)
system.cpu0.icache.overallMissLatency::switch_cpus0.inst   3127941484                       # number of overall miss ticks (Tick)
system.cpu0.icache.overallMissLatency::total   3127941484                       # number of overall miss ticks (Tick)
system.cpu0.icache.demandAccesses::switch_cpus0.inst      5037474                       # number of demand (read+write) accesses (Count)
system.cpu0.icache.demandAccesses::total      5037474                       # number of demand (read+write) accesses (Count)
system.cpu0.icache.overallAccesses::switch_cpus0.inst      5037474                       # number of overall (read+write) accesses (Count)
system.cpu0.icache.overallAccesses::total      5037474                       # number of overall (read+write) accesses (Count)
system.cpu0.icache.demandMissRate::switch_cpus0.inst     0.026249                       # miss rate for demand accesses (Ratio)
system.cpu0.icache.demandMissRate::total     0.026249                       # miss rate for demand accesses (Ratio)
system.cpu0.icache.overallMissRate::switch_cpus0.inst     0.026249                       # miss rate for overall accesses (Ratio)
system.cpu0.icache.overallMissRate::total     0.026249                       # miss rate for overall accesses (Ratio)
system.cpu0.icache.demandAvgMissLatency::switch_cpus0.inst 23655.308810                       # average overall miss latency in ticks ((Tick/Count))
system.cpu0.icache.demandAvgMissLatency::total 23655.308810                       # average overall miss latency in ticks ((Tick/Count))
system.cpu0.icache.overallAvgMissLatency::switch_cpus0.inst 23655.308810                       # average overall miss latency ((Tick/Count))
system.cpu0.icache.overallAvgMissLatency::total 23655.308810                       # average overall miss latency ((Tick/Count))
system.cpu0.icache.blockedCycles::no_mshrs        11306                       # number of cycles access was blocked (Cycle)
system.cpu0.icache.blockedCycles::no_targets            0                       # number of cycles access was blocked (Cycle)
system.cpu0.icache.blockedCauses::no_mshrs          326                       # number of times access was blocked (Count)
system.cpu0.icache.blockedCauses::no_targets            0                       # number of times access was blocked (Count)
system.cpu0.icache.avgBlocked::no_mshrs     34.680982                       # average number of cycles each access was blocked ((Cycle/Count))
system.cpu0.icache.avgBlocked::no_targets          nan                       # average number of cycles each access was blocked ((Cycle/Count))
system.cpu0.icache.writebacks::writebacks       115808                       # number of writebacks (Count)
system.cpu0.icache.writebacks::total           115808                       # number of writebacks (Count)
system.cpu0.icache.demandMshrHits::switch_cpus0.inst        15398                       # number of demand (read+write) MSHR hits (Count)
system.cpu0.icache.demandMshrHits::total        15398                       # number of demand (read+write) MSHR hits (Count)
system.cpu0.icache.overallMshrHits::switch_cpus0.inst        15398                       # number of overall MSHR hits (Count)
system.cpu0.icache.overallMshrHits::total        15398                       # number of overall MSHR hits (Count)
system.cpu0.icache.demandMshrMisses::switch_cpus0.inst       116832                       # number of demand (read+write) MSHR misses (Count)
system.cpu0.icache.demandMshrMisses::total       116832                       # number of demand (read+write) MSHR misses (Count)
system.cpu0.icache.overallMshrMisses::switch_cpus0.inst       116832                       # number of overall MSHR misses (Count)
system.cpu0.icache.overallMshrMisses::total       116832                       # number of overall MSHR misses (Count)
system.cpu0.icache.demandMshrMissLatency::switch_cpus0.inst   2640392487                       # number of demand (read+write) MSHR miss ticks (Tick)
system.cpu0.icache.demandMshrMissLatency::total   2640392487                       # number of demand (read+write) MSHR miss ticks (Tick)
system.cpu0.icache.overallMshrMissLatency::switch_cpus0.inst   2640392487                       # number of overall MSHR miss ticks (Tick)
system.cpu0.icache.overallMshrMissLatency::total   2640392487                       # number of overall MSHR miss ticks (Tick)
system.cpu0.icache.demandMshrMissRate::switch_cpus0.inst     0.023193                       # mshr miss ratio for demand accesses (Ratio)
system.cpu0.icache.demandMshrMissRate::total     0.023193                       # mshr miss ratio for demand accesses (Ratio)
system.cpu0.icache.overallMshrMissRate::switch_cpus0.inst     0.023193                       # mshr miss ratio for overall accesses (Ratio)
system.cpu0.icache.overallMshrMissRate::total     0.023193                       # mshr miss ratio for overall accesses (Ratio)
system.cpu0.icache.demandAvgMshrMissLatency::switch_cpus0.inst 22599.908304                       # average overall mshr miss latency ((Tick/Count))
system.cpu0.icache.demandAvgMshrMissLatency::total 22599.908304                       # average overall mshr miss latency ((Tick/Count))
system.cpu0.icache.overallAvgMshrMissLatency::switch_cpus0.inst 22599.908304                       # average overall mshr miss latency ((Tick/Count))
system.cpu0.icache.overallAvgMshrMissLatency::total 22599.908304                       # average overall mshr miss latency ((Tick/Count))
system.cpu0.icache.replacements                115808                       # number of replacements (Count)
system.cpu0.icache.ReadReq.hits::switch_cpus0.inst      4905244                       # number of ReadReq hits (Count)
system.cpu0.icache.ReadReq.hits::total        4905244                       # number of ReadReq hits (Count)
system.cpu0.icache.ReadReq.misses::switch_cpus0.inst       132230                       # number of ReadReq misses (Count)
system.cpu0.icache.ReadReq.misses::total       132230                       # number of ReadReq misses (Count)
system.cpu0.icache.ReadReq.missLatency::switch_cpus0.inst   3127941484                       # number of ReadReq miss ticks (Tick)
system.cpu0.icache.ReadReq.missLatency::total   3127941484                       # number of ReadReq miss ticks (Tick)
system.cpu0.icache.ReadReq.accesses::switch_cpus0.inst      5037474                       # number of ReadReq accesses(hits+misses) (Count)
system.cpu0.icache.ReadReq.accesses::total      5037474                       # number of ReadReq accesses(hits+misses) (Count)
system.cpu0.icache.ReadReq.missRate::switch_cpus0.inst     0.026249                       # miss rate for ReadReq accesses (Ratio)
system.cpu0.icache.ReadReq.missRate::total     0.026249                       # miss rate for ReadReq accesses (Ratio)
system.cpu0.icache.ReadReq.avgMissLatency::switch_cpus0.inst 23655.308810                       # average ReadReq miss latency ((Tick/Count))
system.cpu0.icache.ReadReq.avgMissLatency::total 23655.308810                       # average ReadReq miss latency ((Tick/Count))
system.cpu0.icache.ReadReq.mshrHits::switch_cpus0.inst        15398                       # number of ReadReq MSHR hits (Count)
system.cpu0.icache.ReadReq.mshrHits::total        15398                       # number of ReadReq MSHR hits (Count)
system.cpu0.icache.ReadReq.mshrMisses::switch_cpus0.inst       116832                       # number of ReadReq MSHR misses (Count)
system.cpu0.icache.ReadReq.mshrMisses::total       116832                       # number of ReadReq MSHR misses (Count)
system.cpu0.icache.ReadReq.mshrMissLatency::switch_cpus0.inst   2640392487                       # number of ReadReq MSHR miss ticks (Tick)
system.cpu0.icache.ReadReq.mshrMissLatency::total   2640392487                       # number of ReadReq MSHR miss ticks (Tick)
system.cpu0.icache.ReadReq.mshrMissRate::switch_cpus0.inst     0.023193                       # mshr miss rate for ReadReq accesses (Ratio)
system.cpu0.icache.ReadReq.mshrMissRate::total     0.023193                       # mshr miss rate for ReadReq accesses (Ratio)
system.cpu0.icache.ReadReq.avgMshrMissLatency::switch_cpus0.inst 22599.908304                       # average ReadReq mshr miss latency ((Tick/Count))
system.cpu0.icache.ReadReq.avgMshrMissLatency::total 22599.908304                       # average ReadReq mshr miss latency ((Tick/Count))
system.cpu0.icache.power_state.pwrStateResidencyTicks::UNDEFINED 7502133984000                       # Cumulative time (in ticks) in various power states (Tick)
system.cpu0.icache.tags.tagsInUse            2.072191                       # Average ticks per tags in use ((Tick/Count))
system.cpu0.icache.tags.totalRefs             5022076                       # Total number of references to valid blocks. (Count)
system.cpu0.icache.tags.sampledRefs            116832                       # Sample count of references to valid blocks. (Count)
system.cpu0.icache.tags.avgRefs             42.985449                       # Average number of references to valid blocks. ((Count/Count))
system.cpu0.icache.tags.warmupTick       2716617698000                       # The tick when the warmup percentage was hit. (Tick)
system.cpu0.icache.tags.occupancies::switch_cpus0.inst     2.072191                       # Average occupied blocks per tick, per requestor ((Count/Tick))
system.cpu0.icache.tags.avgOccs::switch_cpus0.inst     0.002024                       # Average percentage of cache occupancy ((Ratio/Tick))
system.cpu0.icache.tags.avgOccs::total       0.002024                       # Average percentage of cache occupancy ((Ratio/Tick))
system.cpu0.icache.tags.tagAccesses          20266728                       # Number of tag accesses (Count)
system.cpu0.icache.tags.dataAccesses         20266728                       # Number of data accesses (Count)
system.cpu0.icache.tags.power_state.pwrStateResidencyTicks::UNDEFINED 7502133984000                       # Cumulative time (in ticks) in various power states (Tick)
system.cpu0.l2cache.demandHits::switch_cpus0.mmu.dtb_walker         8691                       # number of demand (read+write) hits (Count)
system.cpu0.l2cache.demandHits::switch_cpus0.mmu.itb_walker          668                       # number of demand (read+write) hits (Count)
system.cpu0.l2cache.demandHits::switch_cpus0.inst        93308                       # number of demand (read+write) hits (Count)
system.cpu0.l2cache.demandHits::switch_cpus0.data        34568                       # number of demand (read+write) hits (Count)
system.cpu0.l2cache.demandHits::total          137235                       # number of demand (read+write) hits (Count)
system.cpu0.l2cache.overallHits::switch_cpus0.mmu.dtb_walker         8691                       # number of overall hits (Count)
system.cpu0.l2cache.overallHits::switch_cpus0.mmu.itb_walker          668                       # number of overall hits (Count)
system.cpu0.l2cache.overallHits::switch_cpus0.inst        93308                       # number of overall hits (Count)
system.cpu0.l2cache.overallHits::switch_cpus0.data        34568                       # number of overall hits (Count)
system.cpu0.l2cache.overallHits::total         137235                       # number of overall hits (Count)
system.cpu0.l2cache.demandMisses::switch_cpus0.mmu.dtb_walker          995                       # number of demand (read+write) misses (Count)
system.cpu0.l2cache.demandMisses::switch_cpus0.mmu.itb_walker          134                       # number of demand (read+write) misses (Count)
system.cpu0.l2cache.demandMisses::switch_cpus0.inst        23524                       # number of demand (read+write) misses (Count)
system.cpu0.l2cache.demandMisses::switch_cpus0.data        49172                       # number of demand (read+write) misses (Count)
system.cpu0.l2cache.demandMisses::total         73825                       # number of demand (read+write) misses (Count)
system.cpu0.l2cache.overallMisses::switch_cpus0.mmu.dtb_walker          995                       # number of overall misses (Count)
system.cpu0.l2cache.overallMisses::switch_cpus0.mmu.itb_walker          134                       # number of overall misses (Count)
system.cpu0.l2cache.overallMisses::switch_cpus0.inst        23524                       # number of overall misses (Count)
system.cpu0.l2cache.overallMisses::switch_cpus0.data        49172                       # number of overall misses (Count)
system.cpu0.l2cache.overallMisses::total        73825                       # number of overall misses (Count)
system.cpu0.l2cache.demandMissLatency::switch_cpus0.mmu.dtb_walker     74133601                       # number of demand (read+write) miss ticks (Tick)
system.cpu0.l2cache.demandMissLatency::switch_cpus0.mmu.itb_walker      7704402                       # number of demand (read+write) miss ticks (Tick)
system.cpu0.l2cache.demandMissLatency::switch_cpus0.inst   1474593000                       # number of demand (read+write) miss ticks (Tick)
system.cpu0.l2cache.demandMissLatency::switch_cpus0.data   4167638000                       # number of demand (read+write) miss ticks (Tick)
system.cpu0.l2cache.demandMissLatency::total   5724069003                       # number of demand (read+write) miss ticks (Tick)
system.cpu0.l2cache.overallMissLatency::switch_cpus0.mmu.dtb_walker     74133601                       # number of overall miss ticks (Tick)
system.cpu0.l2cache.overallMissLatency::switch_cpus0.mmu.itb_walker      7704402                       # number of overall miss ticks (Tick)
system.cpu0.l2cache.overallMissLatency::switch_cpus0.inst   1474593000                       # number of overall miss ticks (Tick)
system.cpu0.l2cache.overallMissLatency::switch_cpus0.data   4167638000                       # number of overall miss ticks (Tick)
system.cpu0.l2cache.overallMissLatency::total   5724069003                       # number of overall miss ticks (Tick)
system.cpu0.l2cache.demandAccesses::switch_cpus0.mmu.dtb_walker         9686                       # number of demand (read+write) accesses (Count)
system.cpu0.l2cache.demandAccesses::switch_cpus0.mmu.itb_walker          802                       # number of demand (read+write) accesses (Count)
system.cpu0.l2cache.demandAccesses::switch_cpus0.inst       116832                       # number of demand (read+write) accesses (Count)
system.cpu0.l2cache.demandAccesses::switch_cpus0.data        83740                       # number of demand (read+write) accesses (Count)
system.cpu0.l2cache.demandAccesses::total       211060                       # number of demand (read+write) accesses (Count)
system.cpu0.l2cache.overallAccesses::switch_cpus0.mmu.dtb_walker         9686                       # number of overall (read+write) accesses (Count)
system.cpu0.l2cache.overallAccesses::switch_cpus0.mmu.itb_walker          802                       # number of overall (read+write) accesses (Count)
system.cpu0.l2cache.overallAccesses::switch_cpus0.inst       116832                       # number of overall (read+write) accesses (Count)
system.cpu0.l2cache.overallAccesses::switch_cpus0.data        83740                       # number of overall (read+write) accesses (Count)
system.cpu0.l2cache.overallAccesses::total       211060                       # number of overall (read+write) accesses (Count)
system.cpu0.l2cache.demandMissRate::switch_cpus0.mmu.dtb_walker     0.102726                       # miss rate for demand accesses (Ratio)
system.cpu0.l2cache.demandMissRate::switch_cpus0.mmu.itb_walker     0.167082                       # miss rate for demand accesses (Ratio)
system.cpu0.l2cache.demandMissRate::switch_cpus0.inst     0.201349                       # miss rate for demand accesses (Ratio)
system.cpu0.l2cache.demandMissRate::switch_cpus0.data     0.587198                       # miss rate for demand accesses (Ratio)
system.cpu0.l2cache.demandMissRate::total     0.349782                       # miss rate for demand accesses (Ratio)
system.cpu0.l2cache.overallMissRate::switch_cpus0.mmu.dtb_walker     0.102726                       # miss rate for overall accesses (Ratio)
system.cpu0.l2cache.overallMissRate::switch_cpus0.mmu.itb_walker     0.167082                       # miss rate for overall accesses (Ratio)
system.cpu0.l2cache.overallMissRate::switch_cpus0.inst     0.201349                       # miss rate for overall accesses (Ratio)
system.cpu0.l2cache.overallMissRate::switch_cpus0.data     0.587198                       # miss rate for overall accesses (Ratio)
system.cpu0.l2cache.overallMissRate::total     0.349782                       # miss rate for overall accesses (Ratio)
system.cpu0.l2cache.demandAvgMissLatency::switch_cpus0.mmu.dtb_walker 74506.131658                       # average overall miss latency in ticks ((Tick/Count))
system.cpu0.l2cache.demandAvgMissLatency::switch_cpus0.mmu.itb_walker 57495.537313                       # average overall miss latency in ticks ((Tick/Count))
system.cpu0.l2cache.demandAvgMissLatency::switch_cpus0.inst 62684.619963                       # average overall miss latency in ticks ((Tick/Count))
system.cpu0.l2cache.demandAvgMissLatency::switch_cpus0.data 84756.324738                       # average overall miss latency in ticks ((Tick/Count))
system.cpu0.l2cache.demandAvgMissLatency::total 77535.645147                       # average overall miss latency in ticks ((Tick/Count))
system.cpu0.l2cache.overallAvgMissLatency::switch_cpus0.mmu.dtb_walker 74506.131658                       # average overall miss latency ((Tick/Count))
system.cpu0.l2cache.overallAvgMissLatency::switch_cpus0.mmu.itb_walker 57495.537313                       # average overall miss latency ((Tick/Count))
system.cpu0.l2cache.overallAvgMissLatency::switch_cpus0.inst 62684.619963                       # average overall miss latency ((Tick/Count))
system.cpu0.l2cache.overallAvgMissLatency::switch_cpus0.data 84756.324738                       # average overall miss latency ((Tick/Count))
system.cpu0.l2cache.overallAvgMissLatency::total 77535.645147                       # average overall miss latency ((Tick/Count))
system.cpu0.l2cache.blockedCycles::no_mshrs            0                       # number of cycles access was blocked (Cycle)
system.cpu0.l2cache.blockedCycles::no_targets            0                       # number of cycles access was blocked (Cycle)
system.cpu0.l2cache.blockedCauses::no_mshrs            0                       # number of times access was blocked (Count)
system.cpu0.l2cache.blockedCauses::no_targets            0                       # number of times access was blocked (Count)
system.cpu0.l2cache.avgBlocked::no_mshrs          nan                       # average number of cycles each access was blocked ((Cycle/Count))
system.cpu0.l2cache.avgBlocked::no_targets          nan                       # average number of cycles each access was blocked ((Cycle/Count))
system.cpu0.l2cache.writebacks::writebacks        21893                       # number of writebacks (Count)
system.cpu0.l2cache.writebacks::total           21893                       # number of writebacks (Count)
system.cpu0.l2cache.demandMshrMisses::switch_cpus0.mmu.dtb_walker          995                       # number of demand (read+write) MSHR misses (Count)
system.cpu0.l2cache.demandMshrMisses::switch_cpus0.mmu.itb_walker          134                       # number of demand (read+write) MSHR misses (Count)
system.cpu0.l2cache.demandMshrMisses::switch_cpus0.inst        23524                       # number of demand (read+write) MSHR misses (Count)
system.cpu0.l2cache.demandMshrMisses::switch_cpus0.data        49172                       # number of demand (read+write) MSHR misses (Count)
system.cpu0.l2cache.demandMshrMisses::total        73825                       # number of demand (read+write) MSHR misses (Count)
system.cpu0.l2cache.overallMshrMisses::switch_cpus0.mmu.dtb_walker          995                       # number of overall MSHR misses (Count)
system.cpu0.l2cache.overallMshrMisses::switch_cpus0.mmu.itb_walker          134                       # number of overall MSHR misses (Count)
system.cpu0.l2cache.overallMshrMisses::switch_cpus0.inst        23524                       # number of overall MSHR misses (Count)
system.cpu0.l2cache.overallMshrMisses::switch_cpus0.data        49172                       # number of overall MSHR misses (Count)
system.cpu0.l2cache.overallMshrMisses::total        73825                       # number of overall MSHR misses (Count)
system.cpu0.l2cache.overallMshrUncacheable::switch_cpus0.data         3853                       # number of overall MSHR uncacheable misses (Count)
system.cpu0.l2cache.overallMshrUncacheable::total         3853                       # number of overall MSHR uncacheable misses (Count)
system.cpu0.l2cache.demandMshrMissLatency::switch_cpus0.mmu.dtb_walker     64183601                       # number of demand (read+write) MSHR miss ticks (Tick)
system.cpu0.l2cache.demandMshrMissLatency::switch_cpus0.mmu.itb_walker      6364402                       # number of demand (read+write) MSHR miss ticks (Tick)
system.cpu0.l2cache.demandMshrMissLatency::switch_cpus0.inst   1239353000                       # number of demand (read+write) MSHR miss ticks (Tick)
system.cpu0.l2cache.demandMshrMissLatency::switch_cpus0.data   3675918000                       # number of demand (read+write) MSHR miss ticks (Tick)
system.cpu0.l2cache.demandMshrMissLatency::total   4985819003                       # number of demand (read+write) MSHR miss ticks (Tick)
system.cpu0.l2cache.overallMshrMissLatency::switch_cpus0.mmu.dtb_walker     64183601                       # number of overall MSHR miss ticks (Tick)
system.cpu0.l2cache.overallMshrMissLatency::switch_cpus0.mmu.itb_walker      6364402                       # number of overall MSHR miss ticks (Tick)
system.cpu0.l2cache.overallMshrMissLatency::switch_cpus0.inst   1239353000                       # number of overall MSHR miss ticks (Tick)
system.cpu0.l2cache.overallMshrMissLatency::switch_cpus0.data   3675918000                       # number of overall MSHR miss ticks (Tick)
system.cpu0.l2cache.overallMshrMissLatency::total   4985819003                       # number of overall MSHR miss ticks (Tick)
system.cpu0.l2cache.overallMshrUncacheableLatency::switch_cpus0.data    191698500                       # number of overall MSHR uncacheable ticks (Tick)
system.cpu0.l2cache.overallMshrUncacheableLatency::total    191698500                       # number of overall MSHR uncacheable ticks (Tick)
system.cpu0.l2cache.demandMshrMissRate::switch_cpus0.mmu.dtb_walker     0.102726                       # mshr miss ratio for demand accesses (Ratio)
system.cpu0.l2cache.demandMshrMissRate::switch_cpus0.mmu.itb_walker     0.167082                       # mshr miss ratio for demand accesses (Ratio)
system.cpu0.l2cache.demandMshrMissRate::switch_cpus0.inst     0.201349                       # mshr miss ratio for demand accesses (Ratio)
system.cpu0.l2cache.demandMshrMissRate::switch_cpus0.data     0.587198                       # mshr miss ratio for demand accesses (Ratio)
system.cpu0.l2cache.demandMshrMissRate::total     0.349782                       # mshr miss ratio for demand accesses (Ratio)
system.cpu0.l2cache.overallMshrMissRate::switch_cpus0.mmu.dtb_walker     0.102726                       # mshr miss ratio for overall accesses (Ratio)
system.cpu0.l2cache.overallMshrMissRate::switch_cpus0.mmu.itb_walker     0.167082                       # mshr miss ratio for overall accesses (Ratio)
system.cpu0.l2cache.overallMshrMissRate::switch_cpus0.inst     0.201349                       # mshr miss ratio for overall accesses (Ratio)
system.cpu0.l2cache.overallMshrMissRate::switch_cpus0.data     0.587198                       # mshr miss ratio for overall accesses (Ratio)
system.cpu0.l2cache.overallMshrMissRate::total     0.349782                       # mshr miss ratio for overall accesses (Ratio)
system.cpu0.l2cache.demandAvgMshrMissLatency::switch_cpus0.mmu.dtb_walker 64506.131658                       # average overall mshr miss latency ((Tick/Count))
system.cpu0.l2cache.demandAvgMshrMissLatency::switch_cpus0.mmu.itb_walker 47495.537313                       # average overall mshr miss latency ((Tick/Count))
system.cpu0.l2cache.demandAvgMshrMissLatency::switch_cpus0.inst 52684.619963                       # average overall mshr miss latency ((Tick/Count))
system.cpu0.l2cache.demandAvgMshrMissLatency::switch_cpus0.data 74756.324738                       # average overall mshr miss latency ((Tick/Count))
system.cpu0.l2cache.demandAvgMshrMissLatency::total 67535.645147                       # average overall mshr miss latency ((Tick/Count))
system.cpu0.l2cache.overallAvgMshrMissLatency::switch_cpus0.mmu.dtb_walker 64506.131658                       # average overall mshr miss latency ((Tick/Count))
system.cpu0.l2cache.overallAvgMshrMissLatency::switch_cpus0.mmu.itb_walker 47495.537313                       # average overall mshr miss latency ((Tick/Count))
system.cpu0.l2cache.overallAvgMshrMissLatency::switch_cpus0.inst 52684.619963                       # average overall mshr miss latency ((Tick/Count))
system.cpu0.l2cache.overallAvgMshrMissLatency::switch_cpus0.data 74756.324738                       # average overall mshr miss latency ((Tick/Count))
system.cpu0.l2cache.overallAvgMshrMissLatency::total 67535.645147                       # average overall mshr miss latency ((Tick/Count))
system.cpu0.l2cache.overallAvgMshrUncacheableLatency::switch_cpus0.data 49753.049572                       # average overall mshr uncacheable latency ((Tick/Count))
system.cpu0.l2cache.overallAvgMshrUncacheableLatency::total 49753.049572                       # average overall mshr uncacheable latency ((Tick/Count))
system.cpu0.l2cache.replacements                71493                       # number of replacements (Count)
system.cpu0.l2cache.CleanEvict.mshrMisses::writebacks          238                       # number of CleanEvict MSHR misses (Count)
system.cpu0.l2cache.CleanEvict.mshrMisses::total          238                       # number of CleanEvict MSHR misses (Count)
system.cpu0.l2cache.CleanEvict.mshrMissRate::writebacks          inf                       # mshr miss rate for CleanEvict accesses (Ratio)
system.cpu0.l2cache.CleanEvict.mshrMissRate::total          inf                       # mshr miss rate for CleanEvict accesses (Ratio)
system.cpu0.l2cache.InvalidateReq.hits::switch_cpus0.data          424                       # number of InvalidateReq hits (Count)
system.cpu0.l2cache.InvalidateReq.hits::total          424                       # number of InvalidateReq hits (Count)
system.cpu0.l2cache.InvalidateReq.misses::switch_cpus0.data         6591                       # number of InvalidateReq misses (Count)
system.cpu0.l2cache.InvalidateReq.misses::total         6591                       # number of InvalidateReq misses (Count)
system.cpu0.l2cache.InvalidateReq.missLatency::switch_cpus0.data       365500                       # number of InvalidateReq miss ticks (Tick)
system.cpu0.l2cache.InvalidateReq.missLatency::total       365500                       # number of InvalidateReq miss ticks (Tick)
system.cpu0.l2cache.InvalidateReq.accesses::switch_cpus0.data         7015                       # number of InvalidateReq accesses(hits+misses) (Count)
system.cpu0.l2cache.InvalidateReq.accesses::total         7015                       # number of InvalidateReq accesses(hits+misses) (Count)
system.cpu0.l2cache.InvalidateReq.missRate::switch_cpus0.data     0.939558                       # miss rate for InvalidateReq accesses (Ratio)
system.cpu0.l2cache.InvalidateReq.missRate::total     0.939558                       # miss rate for InvalidateReq accesses (Ratio)
system.cpu0.l2cache.InvalidateReq.avgMissLatency::switch_cpus0.data    55.454408                       # average InvalidateReq miss latency ((Tick/Count))
system.cpu0.l2cache.InvalidateReq.avgMissLatency::total    55.454408                       # average InvalidateReq miss latency ((Tick/Count))
system.cpu0.l2cache.InvalidateReq.mshrMisses::switch_cpus0.data         6591                       # number of InvalidateReq MSHR misses (Count)
system.cpu0.l2cache.InvalidateReq.mshrMisses::total         6591                       # number of InvalidateReq MSHR misses (Count)
system.cpu0.l2cache.InvalidateReq.mshrMissLatency::switch_cpus0.data    282935500                       # number of InvalidateReq MSHR miss ticks (Tick)
system.cpu0.l2cache.InvalidateReq.mshrMissLatency::total    282935500                       # number of InvalidateReq MSHR miss ticks (Tick)
system.cpu0.l2cache.InvalidateReq.mshrMissRate::switch_cpus0.data     0.939558                       # mshr miss rate for InvalidateReq accesses (Ratio)
system.cpu0.l2cache.InvalidateReq.mshrMissRate::total     0.939558                       # mshr miss rate for InvalidateReq accesses (Ratio)
system.cpu0.l2cache.InvalidateReq.avgMshrMissLatency::switch_cpus0.data 42927.552723                       # average InvalidateReq mshr miss latency ((Tick/Count))
system.cpu0.l2cache.InvalidateReq.avgMshrMissLatency::total 42927.552723                       # average InvalidateReq mshr miss latency ((Tick/Count))
system.cpu0.l2cache.ReadCleanReq.hits::switch_cpus0.inst        93308                       # number of ReadCleanReq hits (Count)
system.cpu0.l2cache.ReadCleanReq.hits::total        93308                       # number of ReadCleanReq hits (Count)
system.cpu0.l2cache.ReadCleanReq.misses::switch_cpus0.inst        23524                       # number of ReadCleanReq misses (Count)
system.cpu0.l2cache.ReadCleanReq.misses::total        23524                       # number of ReadCleanReq misses (Count)
system.cpu0.l2cache.ReadCleanReq.missLatency::switch_cpus0.inst   1474593000                       # number of ReadCleanReq miss ticks (Tick)
system.cpu0.l2cache.ReadCleanReq.missLatency::total   1474593000                       # number of ReadCleanReq miss ticks (Tick)
system.cpu0.l2cache.ReadCleanReq.accesses::switch_cpus0.inst       116832                       # number of ReadCleanReq accesses(hits+misses) (Count)
system.cpu0.l2cache.ReadCleanReq.accesses::total       116832                       # number of ReadCleanReq accesses(hits+misses) (Count)
system.cpu0.l2cache.ReadCleanReq.missRate::switch_cpus0.inst     0.201349                       # miss rate for ReadCleanReq accesses (Ratio)
system.cpu0.l2cache.ReadCleanReq.missRate::total     0.201349                       # miss rate for ReadCleanReq accesses (Ratio)
system.cpu0.l2cache.ReadCleanReq.avgMissLatency::switch_cpus0.inst 62684.619963                       # average ReadCleanReq miss latency ((Tick/Count))
system.cpu0.l2cache.ReadCleanReq.avgMissLatency::total 62684.619963                       # average ReadCleanReq miss latency ((Tick/Count))
system.cpu0.l2cache.ReadCleanReq.mshrMisses::switch_cpus0.inst        23524                       # number of ReadCleanReq MSHR misses (Count)
system.cpu0.l2cache.ReadCleanReq.mshrMisses::total        23524                       # number of ReadCleanReq MSHR misses (Count)
system.cpu0.l2cache.ReadCleanReq.mshrMissLatency::switch_cpus0.inst   1239353000                       # number of ReadCleanReq MSHR miss ticks (Tick)
system.cpu0.l2cache.ReadCleanReq.mshrMissLatency::total   1239353000                       # number of ReadCleanReq MSHR miss ticks (Tick)
system.cpu0.l2cache.ReadCleanReq.mshrMissRate::switch_cpus0.inst     0.201349                       # mshr miss rate for ReadCleanReq accesses (Ratio)
system.cpu0.l2cache.ReadCleanReq.mshrMissRate::total     0.201349                       # mshr miss rate for ReadCleanReq accesses (Ratio)
system.cpu0.l2cache.ReadCleanReq.avgMshrMissLatency::switch_cpus0.inst 52684.619963                       # average ReadCleanReq mshr miss latency ((Tick/Count))
system.cpu0.l2cache.ReadCleanReq.avgMshrMissLatency::total 52684.619963                       # average ReadCleanReq mshr miss latency ((Tick/Count))
system.cpu0.l2cache.ReadExReq.hits::switch_cpus0.data         7443                       # number of ReadExReq hits (Count)
system.cpu0.l2cache.ReadExReq.hits::total         7443                       # number of ReadExReq hits (Count)
system.cpu0.l2cache.ReadExReq.misses::switch_cpus0.data        10466                       # number of ReadExReq misses (Count)
system.cpu0.l2cache.ReadExReq.misses::total        10466                       # number of ReadExReq misses (Count)
system.cpu0.l2cache.ReadExReq.missLatency::switch_cpus0.data    927977000                       # number of ReadExReq miss ticks (Tick)
system.cpu0.l2cache.ReadExReq.missLatency::total    927977000                       # number of ReadExReq miss ticks (Tick)
system.cpu0.l2cache.ReadExReq.accesses::switch_cpus0.data        17909                       # number of ReadExReq accesses(hits+misses) (Count)
system.cpu0.l2cache.ReadExReq.accesses::total        17909                       # number of ReadExReq accesses(hits+misses) (Count)
system.cpu0.l2cache.ReadExReq.missRate::switch_cpus0.data     0.584399                       # miss rate for ReadExReq accesses (Ratio)
system.cpu0.l2cache.ReadExReq.missRate::total     0.584399                       # miss rate for ReadExReq accesses (Ratio)
system.cpu0.l2cache.ReadExReq.avgMissLatency::switch_cpus0.data 88665.870438                       # average ReadExReq miss latency ((Tick/Count))
system.cpu0.l2cache.ReadExReq.avgMissLatency::total 88665.870438                       # average ReadExReq miss latency ((Tick/Count))
system.cpu0.l2cache.ReadExReq.mshrMisses::switch_cpus0.data        10466                       # number of ReadExReq MSHR misses (Count)
system.cpu0.l2cache.ReadExReq.mshrMisses::total        10466                       # number of ReadExReq MSHR misses (Count)
system.cpu0.l2cache.ReadExReq.mshrMissLatency::switch_cpus0.data    823317000                       # number of ReadExReq MSHR miss ticks (Tick)
system.cpu0.l2cache.ReadExReq.mshrMissLatency::total    823317000                       # number of ReadExReq MSHR miss ticks (Tick)
system.cpu0.l2cache.ReadExReq.mshrMissRate::switch_cpus0.data     0.584399                       # mshr miss rate for ReadExReq accesses (Ratio)
system.cpu0.l2cache.ReadExReq.mshrMissRate::total     0.584399                       # mshr miss rate for ReadExReq accesses (Ratio)
system.cpu0.l2cache.ReadExReq.avgMshrMissLatency::switch_cpus0.data 78665.870438                       # average ReadExReq mshr miss latency ((Tick/Count))
system.cpu0.l2cache.ReadExReq.avgMshrMissLatency::total 78665.870438                       # average ReadExReq mshr miss latency ((Tick/Count))
system.cpu0.l2cache.ReadReq.hits::switch_cpus0.mmu.dtb_walker         8691                       # number of ReadReq hits (Count)
system.cpu0.l2cache.ReadReq.hits::switch_cpus0.mmu.itb_walker          668                       # number of ReadReq hits (Count)
system.cpu0.l2cache.ReadReq.hits::total          9359                       # number of ReadReq hits (Count)
system.cpu0.l2cache.ReadReq.misses::switch_cpus0.mmu.dtb_walker          995                       # number of ReadReq misses (Count)
system.cpu0.l2cache.ReadReq.misses::switch_cpus0.mmu.itb_walker          134                       # number of ReadReq misses (Count)
system.cpu0.l2cache.ReadReq.misses::total         1129                       # number of ReadReq misses (Count)
system.cpu0.l2cache.ReadReq.missLatency::switch_cpus0.mmu.dtb_walker     74133601                       # number of ReadReq miss ticks (Tick)
system.cpu0.l2cache.ReadReq.missLatency::switch_cpus0.mmu.itb_walker      7704402                       # number of ReadReq miss ticks (Tick)
system.cpu0.l2cache.ReadReq.missLatency::total     81838003                       # number of ReadReq miss ticks (Tick)
system.cpu0.l2cache.ReadReq.accesses::switch_cpus0.mmu.dtb_walker         9686                       # number of ReadReq accesses(hits+misses) (Count)
system.cpu0.l2cache.ReadReq.accesses::switch_cpus0.mmu.itb_walker          802                       # number of ReadReq accesses(hits+misses) (Count)
system.cpu0.l2cache.ReadReq.accesses::total        10488                       # number of ReadReq accesses(hits+misses) (Count)
system.cpu0.l2cache.ReadReq.missRate::switch_cpus0.mmu.dtb_walker     0.102726                       # miss rate for ReadReq accesses (Ratio)
system.cpu0.l2cache.ReadReq.missRate::switch_cpus0.mmu.itb_walker     0.167082                       # miss rate for ReadReq accesses (Ratio)
system.cpu0.l2cache.ReadReq.missRate::total     0.107647                       # miss rate for ReadReq accesses (Ratio)
system.cpu0.l2cache.ReadReq.avgMissLatency::switch_cpus0.mmu.dtb_walker 74506.131658                       # average ReadReq miss latency ((Tick/Count))
system.cpu0.l2cache.ReadReq.avgMissLatency::switch_cpus0.mmu.itb_walker 57495.537313                       # average ReadReq miss latency ((Tick/Count))
system.cpu0.l2cache.ReadReq.avgMissLatency::total 72487.159433                       # average ReadReq miss latency ((Tick/Count))
system.cpu0.l2cache.ReadReq.mshrMisses::switch_cpus0.mmu.dtb_walker          995                       # number of ReadReq MSHR misses (Count)
system.cpu0.l2cache.ReadReq.mshrMisses::switch_cpus0.mmu.itb_walker          134                       # number of ReadReq MSHR misses (Count)
system.cpu0.l2cache.ReadReq.mshrMisses::total         1129                       # number of ReadReq MSHR misses (Count)
system.cpu0.l2cache.ReadReq.mshrUncacheable::switch_cpus0.data         3648                       # number of ReadReq MSHR uncacheable (Count)
system.cpu0.l2cache.ReadReq.mshrUncacheable::total         3648                       # number of ReadReq MSHR uncacheable (Count)
system.cpu0.l2cache.ReadReq.mshrMissLatency::switch_cpus0.mmu.dtb_walker     64183601                       # number of ReadReq MSHR miss ticks (Tick)
system.cpu0.l2cache.ReadReq.mshrMissLatency::switch_cpus0.mmu.itb_walker      6364402                       # number of ReadReq MSHR miss ticks (Tick)
system.cpu0.l2cache.ReadReq.mshrMissLatency::total     70548003                       # number of ReadReq MSHR miss ticks (Tick)
system.cpu0.l2cache.ReadReq.mshrUncacheableLatency::switch_cpus0.data    191698500                       # number of ReadReq MSHR uncacheable ticks (Tick)
system.cpu0.l2cache.ReadReq.mshrUncacheableLatency::total    191698500                       # number of ReadReq MSHR uncacheable ticks (Tick)
system.cpu0.l2cache.ReadReq.mshrMissRate::switch_cpus0.mmu.dtb_walker     0.102726                       # mshr miss rate for ReadReq accesses (Ratio)
system.cpu0.l2cache.ReadReq.mshrMissRate::switch_cpus0.mmu.itb_walker     0.167082                       # mshr miss rate for ReadReq accesses (Ratio)
system.cpu0.l2cache.ReadReq.mshrMissRate::total     0.107647                       # mshr miss rate for ReadReq accesses (Ratio)
system.cpu0.l2cache.ReadReq.avgMshrMissLatency::switch_cpus0.mmu.dtb_walker 64506.131658                       # average ReadReq mshr miss latency ((Tick/Count))
system.cpu0.l2cache.ReadReq.avgMshrMissLatency::switch_cpus0.mmu.itb_walker 47495.537313                       # average ReadReq mshr miss latency ((Tick/Count))
system.cpu0.l2cache.ReadReq.avgMshrMissLatency::total 62487.159433                       # average ReadReq mshr miss latency ((Tick/Count))
system.cpu0.l2cache.ReadReq.avgMshrUncacheableLatency::switch_cpus0.data 52548.930921                       # average ReadReq mshr uncacheable latency ((Tick/Count))
system.cpu0.l2cache.ReadReq.avgMshrUncacheableLatency::total 52548.930921                       # average ReadReq mshr uncacheable latency ((Tick/Count))
system.cpu0.l2cache.ReadSharedReq.hits::switch_cpus0.data        27125                       # number of ReadSharedReq hits (Count)
system.cpu0.l2cache.ReadSharedReq.hits::total        27125                       # number of ReadSharedReq hits (Count)
system.cpu0.l2cache.ReadSharedReq.misses::switch_cpus0.data        38706                       # number of ReadSharedReq misses (Count)
system.cpu0.l2cache.ReadSharedReq.misses::total        38706                       # number of ReadSharedReq misses (Count)
system.cpu0.l2cache.ReadSharedReq.missLatency::switch_cpus0.data   3239661000                       # number of ReadSharedReq miss ticks (Tick)
system.cpu0.l2cache.ReadSharedReq.missLatency::total   3239661000                       # number of ReadSharedReq miss ticks (Tick)
system.cpu0.l2cache.ReadSharedReq.accesses::switch_cpus0.data        65831                       # number of ReadSharedReq accesses(hits+misses) (Count)
system.cpu0.l2cache.ReadSharedReq.accesses::total        65831                       # number of ReadSharedReq accesses(hits+misses) (Count)
system.cpu0.l2cache.ReadSharedReq.missRate::switch_cpus0.data     0.587960                       # miss rate for ReadSharedReq accesses (Ratio)
system.cpu0.l2cache.ReadSharedReq.missRate::total     0.587960                       # miss rate for ReadSharedReq accesses (Ratio)
system.cpu0.l2cache.ReadSharedReq.avgMissLatency::switch_cpus0.data 83699.193923                       # average ReadSharedReq miss latency ((Tick/Count))
system.cpu0.l2cache.ReadSharedReq.avgMissLatency::total 83699.193923                       # average ReadSharedReq miss latency ((Tick/Count))
system.cpu0.l2cache.ReadSharedReq.mshrMisses::switch_cpus0.data        38706                       # number of ReadSharedReq MSHR misses (Count)
system.cpu0.l2cache.ReadSharedReq.mshrMisses::total        38706                       # number of ReadSharedReq MSHR misses (Count)
system.cpu0.l2cache.ReadSharedReq.mshrMissLatency::switch_cpus0.data   2852601000                       # number of ReadSharedReq MSHR miss ticks (Tick)
system.cpu0.l2cache.ReadSharedReq.mshrMissLatency::total   2852601000                       # number of ReadSharedReq MSHR miss ticks (Tick)
system.cpu0.l2cache.ReadSharedReq.mshrMissRate::switch_cpus0.data     0.587960                       # mshr miss rate for ReadSharedReq accesses (Ratio)
system.cpu0.l2cache.ReadSharedReq.mshrMissRate::total     0.587960                       # mshr miss rate for ReadSharedReq accesses (Ratio)
system.cpu0.l2cache.ReadSharedReq.avgMshrMissLatency::switch_cpus0.data 73699.193923                       # average ReadSharedReq mshr miss latency ((Tick/Count))
system.cpu0.l2cache.ReadSharedReq.avgMshrMissLatency::total 73699.193923                       # average ReadSharedReq mshr miss latency ((Tick/Count))
system.cpu0.l2cache.SCUpgradeReq.hits::switch_cpus0.data            1                       # number of SCUpgradeReq hits (Count)
system.cpu0.l2cache.SCUpgradeReq.hits::total            1                       # number of SCUpgradeReq hits (Count)
system.cpu0.l2cache.SCUpgradeReq.accesses::switch_cpus0.data            1                       # number of SCUpgradeReq accesses(hits+misses) (Count)
system.cpu0.l2cache.SCUpgradeReq.accesses::total            1                       # number of SCUpgradeReq accesses(hits+misses) (Count)
system.cpu0.l2cache.UpgradeReq.hits::switch_cpus0.data         2979                       # number of UpgradeReq hits (Count)
system.cpu0.l2cache.UpgradeReq.hits::total         2979                       # number of UpgradeReq hits (Count)
system.cpu0.l2cache.UpgradeReq.misses::switch_cpus0.data         1347                       # number of UpgradeReq misses (Count)
system.cpu0.l2cache.UpgradeReq.misses::total         1347                       # number of UpgradeReq misses (Count)
system.cpu0.l2cache.UpgradeReq.missLatency::switch_cpus0.data     44796500                       # number of UpgradeReq miss ticks (Tick)
system.cpu0.l2cache.UpgradeReq.missLatency::total     44796500                       # number of UpgradeReq miss ticks (Tick)
system.cpu0.l2cache.UpgradeReq.accesses::switch_cpus0.data         4326                       # number of UpgradeReq accesses(hits+misses) (Count)
system.cpu0.l2cache.UpgradeReq.accesses::total         4326                       # number of UpgradeReq accesses(hits+misses) (Count)
system.cpu0.l2cache.UpgradeReq.missRate::switch_cpus0.data     0.311373                       # miss rate for UpgradeReq accesses (Ratio)
system.cpu0.l2cache.UpgradeReq.missRate::total     0.311373                       # miss rate for UpgradeReq accesses (Ratio)
system.cpu0.l2cache.UpgradeReq.avgMissLatency::switch_cpus0.data 33256.495917                       # average UpgradeReq miss latency ((Tick/Count))
system.cpu0.l2cache.UpgradeReq.avgMissLatency::total 33256.495917                       # average UpgradeReq miss latency ((Tick/Count))
system.cpu0.l2cache.UpgradeReq.mshrMisses::switch_cpus0.data         1347                       # number of UpgradeReq MSHR misses (Count)
system.cpu0.l2cache.UpgradeReq.mshrMisses::total         1347                       # number of UpgradeReq MSHR misses (Count)
system.cpu0.l2cache.UpgradeReq.mshrMissLatency::switch_cpus0.data     32787500                       # number of UpgradeReq MSHR miss ticks (Tick)
system.cpu0.l2cache.UpgradeReq.mshrMissLatency::total     32787500                       # number of UpgradeReq MSHR miss ticks (Tick)
[...]
system.switch_cpus1.mmu.itb_walker.requestOrigin_Completed::total          450                       # Table walker requests started/completed, data/inst (Count)
system.switch_cpus1.mmu.itb_walker.requestOrigin::total         1164                       # Table walker requests started/completed, data/inst (Count)
system.switch_cpus1.mmu.itb_walker.power_state.pwrStateResidencyTicks::UNDEFINED 7502133984000                       # Cumulative time (in ticks) in various power states (Tick)
system.switch_cpus1.mmu.l2_shared.partialHits         7492                       # partial translation hits (Count)
system.switch_cpus1.mmu.l2_shared.instHits         1404                       # Inst hits (Count)
system.switch_cpus1.mmu.l2_shared.instMisses           38                       # Inst misses (Count)
system.switch_cpus1.mmu.l2_shared.readHits         6238                       # Read hits (Count)
system.switch_cpus1.mmu.l2_shared.readMisses         3733                       # Read misses (Count)
system.switch_cpus1.mmu.l2_shared.writeHits         3383                       # Write hits (Count)
system.switch_cpus1.mmu.l2_shared.writeMisses          849                       # Write misses (Count)
system.switch_cpus1.mmu.l2_shared.inserts         2320                       # Number of times an entry is inserted into the TLB (Count)
system.switch_cpus1.mmu.l2_shared.flushTlb            2                       # Number of times complete TLB was flushed (Count)
system.switch_cpus1.mmu.l2_shared.flushTlbMva            0                       # Number of times TLB was flushed by MVA (Count)
system.switch_cpus1.mmu.l2_shared.flushTlbMvaAsid          378                       # Number of times TLB was flushed by MVA & ASID (Count)
system.switch_cpus1.mmu.l2_shared.flushTlbAsid            7                       # Number of times TLB was flushed by ASID (Count)
system.switch_cpus1.mmu.l2_shared.flushedEntries         2305                       # Number of entries that have been flushed from TLB (Count)
system.switch_cpus1.mmu.l2_shared.readAccesses         9971                       # Read accesses (Count)
system.switch_cpus1.mmu.l2_shared.writeAccesses         4232                       # Write accesses (Count)
system.switch_cpus1.mmu.l2_shared.instAccesses         1442                       # Inst accesses (Count)
system.switch_cpus1.mmu.l2_shared.hits          11025                       # Total TLB (inst and data) hits (Count)
system.switch_cpus1.mmu.l2_shared.misses         4620                       # Total TLB (inst and data) misses (Count)
system.switch_cpus1.mmu.l2_shared.accesses        15645                       # Total TLB (inst and data) accesses (Count)
system.switch_cpus1.mmu.stage2_dtb.readHits            0                       # Read hits (Count)
system.switch_cpus1.mmu.stage2_dtb.readMisses            0                       # Read misses (Count)
system.switch_cpus1.mmu.stage2_dtb.writeHits            0                       # Write hits (Count)
system.switch_cpus1.mmu.stage2_dtb.writeMisses            0                       # Write misses (Count)
system.switch_cpus1.mmu.stage2_dtb.inserts            0                       # Number of times an entry is inserted into the TLB (Count)
system.switch_cpus1.mmu.stage2_dtb.flushTlb            2                       # Number of times complete TLB was flushed (Count)
system.switch_cpus1.mmu.stage2_dtb.flushTlbMva            0                       # Number of times TLB was flushed by MVA (Count)
system.switch_cpus1.mmu.stage2_dtb.flushTlbMvaAsid            0                       # Number of times TLB was flushed by MVA & ASID (Count)
system.switch_cpus1.mmu.stage2_dtb.flushTlbAsid            0                       # Number of times TLB was flushed by ASID (Count)
system.switch_cpus1.mmu.stage2_dtb.flushedEntries            0                       # Number of entries that have been flushed from TLB (Count)
system.switch_cpus1.mmu.stage2_dtb.readAccesses            0                       # Read accesses (Count)
system.switch_cpus1.mmu.stage2_dtb.writeAccesses            0                       # Write accesses (Count)
system.switch_cpus1.mmu.stage2_dtb.hits             0                       # Total TLB (inst and data) hits (Count)
system.switch_cpus1.mmu.stage2_dtb.misses            0                       # Total TLB (inst and data) misses (Count)
system.switch_cpus1.mmu.stage2_dtb.accesses            0                       # Total TLB (inst and data) accesses (Count)
system.switch_cpus1.mmu.stage2_dtb_walker.walks            0                       # Table walker walks requested (Count)
system.switch_cpus1.mmu.stage2_dtb_walker.requestOrigin_Requested::Data            0                       # Table walker requests started/completed, data/inst (Count)
system.switch_cpus1.mmu.stage2_dtb_walker.requestOrigin_Requested::Inst            0                       # Table walker requests started/completed, data/inst (Count)
system.switch_cpus1.mmu.stage2_dtb_walker.requestOrigin_Requested::total            0                       # Table walker requests started/completed, data/inst (Count)
system.switch_cpus1.mmu.stage2_dtb_walker.requestOrigin_Completed::Data            0                       # Table walker requests started/completed, data/inst (Count)
system.switch_cpus1.mmu.stage2_dtb_walker.requestOrigin_Completed::Inst            0                       # Table walker requests started/completed, data/inst (Count)
system.switch_cpus1.mmu.stage2_dtb_walker.requestOrigin_Completed::total            0                       # Table walker requests started/completed, data/inst (Count)
system.switch_cpus1.mmu.stage2_dtb_walker.requestOrigin::total            0                       # Table walker requests started/completed, data/inst (Count)
system.switch_cpus1.mmu.stage2_dtb_walker.power_state.pwrStateResidencyTicks::UNDEFINED 7502133984000                       # Cumulative time (in ticks) in various power states (Tick)
system.switch_cpus1.mmu.stage2_itb.instHits            0                       # Inst hits (Count)
system.switch_cpus1.mmu.stage2_itb.instMisses            0                       # Inst misses (Count)
system.switch_cpus1.mmu.stage2_itb.inserts            0                       # Number of times an entry is inserted into the TLB (Count)
system.switch_cpus1.mmu.stage2_itb.flushTlb            2                       # Number of times complete TLB was flushed (Count)
system.switch_cpus1.mmu.stage2_itb.flushTlbMva            0                       # Number of times TLB was flushed by MVA (Count)
system.switch_cpus1.mmu.stage2_itb.flushTlbMvaAsid            0                       # Number of times TLB was flushed by MVA & ASID (Count)
system.switch_cpus1.mmu.stage2_itb.flushTlbAsid            0                       # Number of times TLB was flushed by ASID (Count)
system.switch_cpus1.mmu.stage2_itb.flushedEntries            0                       # Number of entries that have been flushed from TLB (Count)
system.switch_cpus1.mmu.stage2_itb.instAccesses            0                       # Inst accesses (Count)
system.switch_cpus1.mmu.stage2_itb.hits             0                       # Total TLB (inst and data) hits (Count)
system.switch_cpus1.mmu.stage2_itb.misses            0                       # Total TLB (inst and data) misses (Count)
system.switch_cpus1.mmu.stage2_itb.accesses            0                       # Total TLB (inst and data) accesses (Count)
system.switch_cpus1.mmu.stage2_itb_walker.walks            0                       # Table walker walks requested (Count)
system.switch_cpus1.mmu.stage2_itb_walker.requestOrigin_Requested::Data            0                       # Table walker requests started/completed, data/inst (Count)
system.switch_cpus1.mmu.stage2_itb_walker.requestOrigin_Requested::Inst            0                       # Table walker requests started/completed, data/inst (Count)
system.switch_cpus1.mmu.stage2_itb_walker.requestOrigin_Requested::total            0                       # Table walker requests started/completed, data/inst (Count)
system.switch_cpus1.mmu.stage2_itb_walker.requestOrigin_Completed::Data            0                       # Table walker requests started/completed, data/inst (Count)
system.switch_cpus1.mmu.stage2_itb_walker.requestOrigin_Completed::Inst            0                       # Table walker requests started/completed, data/inst (Count)
system.switch_cpus1.mmu.stage2_itb_walker.requestOrigin_Completed::total            0                       # Table walker requests started/completed, data/inst (Count)
system.switch_cpus1.mmu.stage2_itb_walker.requestOrigin::total            0                       # Table walker requests started/completed, data/inst (Count)
system.switch_cpus1.mmu.stage2_itb_walker.power_state.pwrStateResidencyTicks::UNDEFINED 7502133984000                       # Cumulative time (in ticks) in various power states (Tick)
system.switch_cpus1.power_state.numTransitions           21                       # Number of power state transitions (Count)
system.switch_cpus1.power_state.ticksClkGated::samples           10                       # Distribution of time spent in the clock gated state (Tick)
system.switch_cpus1.power_state.ticksClkGated::mean   1142324900                       # Distribution of time spent in the clock gated state (Tick)
system.switch_cpus1.power_state.ticksClkGated::stdev 1608988407.348557                       # Distribution of time spent in the clock gated state (Tick)
system.switch_cpus1.power_state.ticksClkGated::1000-5e+10           10    100.00%    100.00% # Distribution of time spent in the clock gated state (Tick)
system.switch_cpus1.power_state.ticksClkGated::min_value      5318000                       # Distribution of time spent in the clock gated state (Tick)
system.switch_cpus1.power_state.ticksClkGated::max_value   3970521000                       # Distribution of time spent in the clock gated state (Tick)
system.switch_cpus1.power_state.ticksClkGated::total           10                       # Distribution of time spent in the clock gated state (Tick)
system.switch_cpus1.power_state.pwrStateResidencyTicks::ON   3827825000                       # Cumulative time (in ticks) in various power states (Tick)
system.switch_cpus1.power_state.pwrStateResidencyTicks::CLK_GATED  11423249000                       # Cumulative time (in ticks) in various power states (Tick)
system.switch_cpus1.power_state.pwrStateResidencyTicks::OFF 7486882910000                       # Cumulative time (in ticks) in various power states (Tick)
system.switch_cpus1.rename.squashCycles         37298                       # Number of cycles rename is squashing (Cycle)
system.switch_cpus1.rename.idleCycles          947972                       # Number of cycles rename is idle (Cycle)
system.switch_cpus1.rename.blockCycles         662083                       # Number of cycles rename is blocking (Cycle)
system.switch_cpus1.rename.serializeStallCycles      1306802                       # count of cycles rename stalled for serializing inst (Cycle)
system.switch_cpus1.rename.runCycles           648785                       # Number of cycles rename is running (Cycle)
system.switch_cpus1.rename.unblockCycles      1004200                       # Number of cycles rename is unblocking (Cycle)
system.switch_cpus1.rename.renamedInsts       4042697                       # Number of instructions processed by rename (Count)
system.switch_cpus1.rename.ROBFullEvents         1944                       # Number of times rename has blocked due to ROB full (Count)
system.switch_cpus1.rename.IQFullEvents         47566                       # Number of times rename has blocked due to IQ full (Count)
system.switch_cpus1.rename.LQFullEvents        643828                       # Number of times rename has blocked due to LQ full (Count)
system.switch_cpus1.rename.SQFullEvents        246117                       # Number of times rename has blocked due to SQ full (Count)
system.switch_cpus1.rename.renamedOperands      3934556                       # Number of destination operands rename has renamed (Count)
system.switch_cpus1.rename.lookups            5868441                       # Number of register rename lookups that rename has made (Count)
system.switch_cpus1.rename.intLookups         4327572                       # Number of integer rename lookups (Count)
system.switch_cpus1.rename.vecLookups           25232                       # Number of vector rename lookups (Count)
system.switch_cpus1.rename.committedMaps      3116822                       # Number of HB maps that are committed (Count)
system.switch_cpus1.rename.undoneMaps          817734                       # Number of HB maps that are undone due to squashing (Count)
system.switch_cpus1.rename.serializing          58878                       # count of serializing insts renamed (Count)
system.switch_cpus1.rename.tempSerializing         8844                       # count of temporary serializing insts renamed (Count)
system.switch_cpus1.rename.skidInsts           549590                       # count of insts added to the skid buffer (Count)
system.switch_cpus1.rob.reads                 8228327                       # The number of ROB reads (Count)
system.switch_cpus1.rob.writes                7961094                       # The number of ROB writes (Count)
system.switch_cpus1.thread_0.numInsts         2693974                       # Number of Instructions committed (Count)
system.switch_cpus1.thread_0.numOps           3152753                       # Number of Ops committed (Count)
system.switch_cpus1.thread_0.numMemRefs             0                       # Number of Memory References (Count)
system.tollcbus.transDist::ReadReq             261962                       # Transaction distribution (Count)
system.tollcbus.transDist::ReadResp            355267                       # Transaction distribution (Count)
system.tollcbus.transDist::WriteReq             36325                       # Transaction distribution (Count)
system.tollcbus.transDist::WriteResp            36325                       # Transaction distribution (Count)
system.tollcbus.transDist::WritebackDirty        42034                       # Transaction distribution (Count)
system.tollcbus.transDist::CleanEvict           86192                       # Transaction distribution (Count)
system.tollcbus.transDist::UpgradeReq            3221                       # Transaction distribution (Count)
system.tollcbus.transDist::UpgradeResp           3221                       # Transaction distribution (Count)
system.tollcbus.transDist::ReadExReq            16672                       # Transaction distribution (Count)
system.tollcbus.transDist::ReadExResp           16672                       # Transaction distribution (Count)
system.tollcbus.transDist::ReadSharedReq        93305                       # Transaction distribution (Count)
system.tollcbus.transDist::InvalidateReq         9006                       # Transaction distribution (Count)
system.tollcbus.transDist::InvalidateResp         9006                       # Transaction distribution (Count)
system.tollcbus.pktCount_system.cpu0.l2cache.mem_side_port::system.llc.cpu_side_port       648350                       # Packet count per connected requestor and responder (Count)
system.tollcbus.pktCount_system.cpu1.l2cache.mem_side_port::system.llc.cpu_side_port       283509                       # Packet count per connected requestor and responder (Count)
system.tollcbus.pktCount::total                931859                       # Packet count per connected requestor and responder (Count)
system.tollcbus.pktSize_system.cpu0.l2cache.mem_side_port::system.llc.cpu_side_port      6790323                       # Cumulative packet size per connected requestor and responder (Byte)
system.tollcbus.pktSize_system.cpu1.l2cache.mem_side_port::system.llc.cpu_side_port      3081355                       # Cumulative packet size per connected requestor and responder (Byte)
system.tollcbus.pktSize::total                9871678                       # Cumulative packet size per connected requestor and responder (Byte)
system.tollcbus.snoops                          37349                       # Total snoops (Count)
system.tollcbus.snoopTraffic                   974976                       # Total snoop traffic (Byte)
system.tollcbus.snoopFanout::samples           157373                       # Request fanout histogram (Count)
system.tollcbus.snoopFanout::mean            0.191971                       # Request fanout histogram (Count)
system.tollcbus.snoopFanout::stdev           0.403982                       # Request fanout histogram (Count)
system.tollcbus.snoopFanout::underflows             0      0.00%      0.00% # Request fanout histogram (Count)
system.tollcbus.snoopFanout::0                 127798     81.21%     81.21% # Request fanout histogram (Count)
system.tollcbus.snoopFanout::1                  28939     18.39%     99.60% # Request fanout histogram (Count)
system.tollcbus.snoopFanout::2                    636      0.40%    100.00% # Request fanout histogram (Count)
system.tollcbus.snoopFanout::overflows              0      0.00%    100.00% # Request fanout histogram (Count)
system.tollcbus.snoopFanout::min_value              0                       # Request fanout histogram (Count)
system.tollcbus.snoopFanout::max_value              2                       # Request fanout histogram (Count)
system.tollcbus.snoopFanout::total             157373                       # Request fanout histogram (Count)
system.tollcbus.power_state.pwrStateResidencyTicks::UNDEFINED 7502133984000                       # Cumulative time (in ticks) in various power states (Tick)
system.tollcbus.reqLayer0.occupancy         144961638                       # Layer occupancy (ticks) (Tick)
system.tollcbus.reqLayer0.utilization             0.0                       # Layer utilization (Ratio)
system.tollcbus.respLayer0.occupancy        118382855                       # Layer occupancy (ticks) (Tick)
system.tollcbus.respLayer0.utilization            0.0                       # Layer utilization (Ratio)
system.tollcbus.respLayer1.occupancy         57814862                       # Layer occupancy (ticks) (Tick)
system.tollcbus.respLayer1.utilization            0.0                       # Layer utilization (Ratio)
system.tollcbus.snoop_filter.totRequests       220663                       # Total number of requests made to the snoop filter. (Count)
system.tollcbus.snoop_filter.hitSingleRequests       103354                       # Number of requests hitting in the snoop filter with a single holder of the requested data. (Count)
system.tollcbus.snoop_filter.hitMultiRequests        16828                       # Number of requests hitting in the snoop filter with multiple (>1) holders of the requested data. (Count)
system.tollcbus.snoop_filter.totSnoops           8238                       # Total number of snoops made to the snoop filter. (Count)
system.tollcbus.snoop_filter.hitSingleSnoops         7602                       # Number of snoops hitting in the snoop filter with a single holder of the requested data. (Count)
system.tollcbus.snoop_filter.hitMultiSnoops          636                       # Number of snoops hitting in the snoop filter with multiple (>1) holders of the requested data. (Count)
system.voltage_domain.voltage                       1                       # Voltage in Volts (Volt)
system.workload.inst.arm                            0                       # number of arm instructions executed (Count)
system.workload.inst.quiesce                       16                       # number of quiesce instructions executed (Count)

---------- End Simulation Statistics   ----------
