
---------- Begin Simulation Statistics ----------
simSeconds                                  16.892983                       # Number of seconds simulated (Second)
simTicks                                 16892983413000                       # Number of ticks simulated (Tick)
finalTick                                16892983413000                       # Number of ticks from beginning of simulation (restored from checkpoints and never reset) (Tick)
simFreq                                  1000000000000                       # The number of ticks per simulated second ((Tick/Second))
hostSeconds                                  96251.98                       # Real time elapsed on the host (Second)
hostTickRate                                175507907                       # The number of ticks simulated per host second (ticks/s) ((Tick/Second))
hostMemory                                   18091632                       # Number of bytes of host memory used (Byte)
simInsts                                  12185940840                       # Number of instructions simulated (Count)
simOps                                    14664539387                       # Number of ops (including micro ops) simulated (Count)
hostInstRate                                   126605                       # Simulator instruction rate (inst/s) ((Count/Second))
hostOpRate                                     152356                       # Simulator op (including micro ops) rate (op/s) ((Count/Second))
system.bridge.power_state.pwrStateResidencyTicks::UNDEFINED 16892983413000                       # Cumulative time (in ticks) in various power states (Tick)
system.clk_domain.clock                          1000                       # Clock period in ticks (Tick)
system.cpu.numCycles                       1608024295                       # Number of cpu cycles simulated (Cycle)
system.cpu.numWorkItemsStarted                      0                       # Number of work items this cpu started (Count)
system.cpu.numWorkItemsCompleted                    0                       # Number of work items this cpu completed (Count)
system.cpu.committedInsts                   731955424                       # Number of instructions committed (Count)
system.cpu.numVMExits                          134692                       # total number of KVM exits (Count)
system.cpu.numVMHalfEntries                         0                       # number of KVM entries to finalize pending operations (Count)
system.cpu.numExitSignal                         8815                       # exits due to signal delivery (Count)
system.cpu.numMMIO                             125877                       # number of VM exits due to memory mapped IO (Count)
system.cpu.numCoalescedMMIO                         0                       # number of coalesced memory mapped IO requests (Count)
system.cpu.numIO                                    0                       # number of VM exits due to legacy IO (Count)
system.cpu.numHalt                                  0                       # number of VM exits due to wait for interrupt instructions (Count)
system.cpu.numInterrupts                            0                       # number of interrupts delivered (Count)
system.cpu.numHypercalls                            0                       # number of hypercalls (Count)
system.cpu.dcache.demandHits::switch_cpus.data   4053006000                       # number of demand (read+write) hits (Count)
system.cpu.dcache.demandHits::total        4053006000                       # number of demand (read+write) hits (Count)
system.cpu.dcache.overallHits::switch_cpus.data   4053018893                       # number of overall hits (Count)
system.cpu.dcache.overallHits::total       4053018893                       # number of overall hits (Count)
system.cpu.dcache.demandMisses::switch_cpus.data    484042367                       # number of demand (read+write) misses (Count)
system.cpu.dcache.demandMisses::total       484042367                       # number of demand (read+write) misses (Count)
system.cpu.dcache.overallMisses::switch_cpus.data    484050211                       # number of overall misses (Count)
system.cpu.dcache.overallMisses::total      484050211                       # number of overall misses (Count)
system.cpu.dcache.demandMissLatency::switch_cpus.data 43289036585191                       # number of demand (read+write) miss ticks (Tick)
system.cpu.dcache.demandMissLatency::total 43289036585191                       # number of demand (read+write) miss ticks (Tick)
system.cpu.dcache.overallMissLatency::switch_cpus.data 43289036585191                       # number of overall miss ticks (Tick)
system.cpu.dcache.overallMissLatency::total 43289036585191                       # number of overall miss ticks (Tick)
system.cpu.dcache.demandAccesses::switch_cpus.data   4537048367                       # number of demand (read+write) accesses (Count)
system.cpu.dcache.demandAccesses::total    4537048367                       # number of demand (read+write) accesses (Count)
system.cpu.dcache.overallAccesses::switch_cpus.data   4537069104                       # number of overall (read+write) accesses (Count)
system.cpu.dcache.overallAccesses::total   4537069104                       # number of overall (read+write) accesses (Count)
system.cpu.dcache.demandMissRate::switch_cpus.data     0.106687                       # miss rate for demand accesses (Ratio)
system.cpu.dcache.demandMissRate::total      0.106687                       # miss rate for demand accesses (Ratio)
system.cpu.dcache.overallMissRate::switch_cpus.data     0.106688                       # miss rate for overall accesses (Ratio)
system.cpu.dcache.overallMissRate::total     0.106688                       # miss rate for overall accesses (Ratio)
system.cpu.dcache.demandAvgMissLatency::switch_cpus.data 89432.329764                       # average overall miss latency in ticks ((Tick/Count))
system.cpu.dcache.demandAvgMissLatency::total 89432.329764                       # average overall miss latency in ticks ((Tick/Count))
system.cpu.dcache.overallAvgMissLatency::switch_cpus.data 89430.880519                       # average overall miss latency ((Tick/Count))
system.cpu.dcache.overallAvgMissLatency::total 89430.880519                       # average overall miss latency ((Tick/Count))
system.cpu.dcache.blockedCycles::no_mshrs   7955107084                       # number of cycles access was blocked (Cycle)
system.cpu.dcache.blockedCycles::no_targets       317094                       # number of cycles access was blocked (Cycle)
system.cpu.dcache.blockedCauses::no_mshrs    173213377                       # number of times access was blocked (Count)
system.cpu.dcache.blockedCauses::no_targets        19978                       # number of times access was blocked (Count)
system.cpu.dcache.avgBlocked::no_mshrs      45.926632                       # average number of cycles each access was blocked ((Cycle/Count))
system.cpu.dcache.avgBlocked::no_targets    15.872159                       # average number of cycles each access was blocked ((Cycle/Count))
system.cpu.dcache.writebacks::writebacks    129873454                       # number of writebacks (Count)
system.cpu.dcache.writebacks::total         129873454                       # number of writebacks (Count)
system.cpu.dcache.demandMshrHits::switch_cpus.data    271955916                       # number of demand (read+write) MSHR hits (Count)
system.cpu.dcache.demandMshrHits::total     271955916                       # number of demand (read+write) MSHR hits (Count)
system.cpu.dcache.overallMshrHits::switch_cpus.data    271955916                       # number of overall MSHR hits (Count)
system.cpu.dcache.overallMshrHits::total    271955916                       # number of overall MSHR hits (Count)
system.cpu.dcache.demandMshrMisses::switch_cpus.data    212086451                       # number of demand (read+write) MSHR misses (Count)
system.cpu.dcache.demandMshrMisses::total    212086451                       # number of demand (read+write) MSHR misses (Count)
system.cpu.dcache.overallMshrMisses::switch_cpus.data    212093312                       # number of overall MSHR misses (Count)
system.cpu.dcache.overallMshrMisses::total    212093312                       # number of overall MSHR misses (Count)
system.cpu.dcache.overallMshrUncacheable::switch_cpus.data       251068                       # number of overall MSHR uncacheable misses (Count)
system.cpu.dcache.overallMshrUncacheable::total       251068                       # number of overall MSHR uncacheable misses (Count)
system.cpu.dcache.demandMshrMissLatency::switch_cpus.data 17998525904352                       # number of demand (read+write) MSHR miss ticks (Tick)
system.cpu.dcache.demandMshrMissLatency::total 17998525904352                       # number of demand (read+write) MSHR miss ticks (Tick)
system.cpu.dcache.overallMshrMissLatency::switch_cpus.data 17999146113852                       # number of overall MSHR miss ticks (Tick)
system.cpu.dcache.overallMshrMissLatency::total 17999146113852                       # number of overall MSHR miss ticks (Tick)
system.cpu.dcache.overallMshrUncacheableLatency::switch_cpus.data  14722529000                       # number of overall MSHR uncacheable ticks (Tick)
system.cpu.dcache.overallMshrUncacheableLatency::total  14722529000                       # number of overall MSHR uncacheable ticks (Tick)
system.cpu.dcache.demandMshrMissRate::switch_cpus.data     0.046745                       # mshr miss ratio for demand accesses (Ratio)
system.cpu.dcache.demandMshrMissRate::total     0.046745                       # mshr miss ratio for demand accesses (Ratio)
system.cpu.dcache.overallMshrMissRate::switch_cpus.data     0.046747                       # mshr miss ratio for overall accesses (Ratio)
system.cpu.dcache.overallMshrMissRate::total     0.046747                       # mshr miss ratio for overall accesses (Ratio)
system.cpu.dcache.demandAvgMshrMissLatency::switch_cpus.data 84864.100557                       # average overall mshr miss latency ((Tick/Count))
system.cpu.dcache.demandAvgMshrMissLatency::total 84864.100557                       # average overall mshr miss latency ((Tick/Count))
system.cpu.dcache.overallAvgMshrMissLatency::switch_cpus.data 84864.279520                       # average overall mshr miss latency ((Tick/Count))
system.cpu.dcache.overallAvgMshrMissLatency::total 84864.279520                       # average overall mshr miss latency ((Tick/Count))
system.cpu.dcache.overallAvgMshrUncacheableLatency::switch_cpus.data 58639.607596                       # average overall mshr uncacheable latency ((Tick/Count))
system.cpu.dcache.overallAvgMshrUncacheableLatency::total 58639.607596                       # average overall mshr uncacheable latency ((Tick/Count))
system.cpu.dcache.replacements              211205581                       # number of replacements (Count)
system.cpu.dcache.CleanSharedReq.missLatency::switch_cpus.data       230000                       # number of CleanSharedReq miss ticks (Tick)
system.cpu.dcache.CleanSharedReq.missLatency::total       230000                       # number of CleanSharedReq miss ticks (Tick)
system.cpu.dcache.CleanSharedReq.avgMissLatency::switch_cpus.data          inf                       # average CleanSharedReq miss latency ((Tick/Count))
system.cpu.dcache.CleanSharedReq.avgMissLatency::total          inf                       # average CleanSharedReq miss latency ((Tick/Count))
system.cpu.dcache.CleanSharedReq.mshrMisses::switch_cpus.data        49088                       # number of CleanSharedReq MSHR misses (Count)
system.cpu.dcache.CleanSharedReq.mshrMisses::total        49088                       # number of CleanSharedReq MSHR misses (Count)
system.cpu.dcache.CleanSharedReq.mshrMissLatency::switch_cpus.data     74863339                       # number of CleanSharedReq MSHR miss ticks (Tick)
system.cpu.dcache.CleanSharedReq.mshrMissLatency::total     74863339                       # number of CleanSharedReq MSHR miss ticks (Tick)
system.cpu.dcache.CleanSharedReq.mshrMissRate::switch_cpus.data          inf                       # mshr miss rate for CleanSharedReq accesses (Ratio)
system.cpu.dcache.CleanSharedReq.mshrMissRate::total          inf                       # mshr miss rate for CleanSharedReq accesses (Ratio)
system.cpu.dcache.CleanSharedReq.avgMshrMissLatency::switch_cpus.data  1525.084318                       # average CleanSharedReq mshr miss latency ((Tick/Count))
system.cpu.dcache.CleanSharedReq.avgMshrMissLatency::total  1525.084318                       # average CleanSharedReq mshr miss latency ((Tick/Count))
system.cpu.dcache.LoadLockedReq.hits::switch_cpus.data          153                       # number of LoadLockedReq hits (Count)
system.cpu.dcache.LoadLockedReq.hits::total          153                       # number of LoadLockedReq hits (Count)
system.cpu.dcache.LoadLockedReq.misses::switch_cpus.data            4                       # number of LoadLockedReq misses (Count)
system.cpu.dcache.LoadLockedReq.misses::total            4                       # number of LoadLockedReq misses (Count)
system.cpu.dcache.LoadLockedReq.missLatency::switch_cpus.data       188500                       # number of LoadLockedReq miss ticks (Tick)
system.cpu.dcache.LoadLockedReq.missLatency::total       188500                       # number of LoadLockedReq miss ticks (Tick)
system.cpu.dcache.LoadLockedReq.accesses::switch_cpus.data          157                       # number of LoadLockedReq accesses(hits+misses) (Count)
system.cpu.dcache.LoadLockedReq.accesses::total          157                       # number of LoadLockedReq accesses(hits+misses) (Count)
system.cpu.dcache.LoadLockedReq.missRate::switch_cpus.data     0.025478                       # miss rate for LoadLockedReq accesses (Ratio)
system.cpu.dcache.LoadLockedReq.missRate::total     0.025478                       # miss rate for LoadLockedReq accesses (Ratio)
system.cpu.dcache.LoadLockedReq.avgMissLatency::switch_cpus.data        47125                       # average LoadLockedReq miss latency ((Tick/Count))
system.cpu.dcache.LoadLockedReq.avgMissLatency::total        47125                       # average LoadLockedReq miss latency ((Tick/Count))
system.cpu.dcache.LoadLockedReq.mshrMisses::switch_cpus.data            4                       # number of LoadLockedReq MSHR misses (Count)
system.cpu.dcache.LoadLockedReq.mshrMisses::total            4                       # number of LoadLockedReq MSHR misses (Count)
system.cpu.dcache.LoadLockedReq.mshrMissLatency::switch_cpus.data       184500                       # number of LoadLockedReq MSHR miss ticks (Tick)
system.cpu.dcache.LoadLockedReq.mshrMissLatency::total       184500                       # number of LoadLockedReq MSHR miss ticks (Tick)
system.cpu.dcache.LoadLockedReq.mshrMissRate::switch_cpus.data     0.025478                       # mshr miss rate for LoadLockedReq accesses (Ratio)
system.cpu.dcache.LoadLockedReq.mshrMissRate::total     0.025478                       # mshr miss rate for LoadLockedReq accesses (Ratio)
system.cpu.dcache.LoadLockedReq.avgMshrMissLatency::switch_cpus.data        46125                       # average LoadLockedReq mshr miss latency ((Tick/Count))
system.cpu.dcache.LoadLockedReq.avgMshrMissLatency::total        46125                       # average LoadLockedReq mshr miss latency ((Tick/Count))
system.cpu.dcache.ReadReq.hits::switch_cpus.data   2044716795                       # number of ReadReq hits (Count)
system.cpu.dcache.ReadReq.hits::total      2044716795                       # number of ReadReq hits (Count)
system.cpu.dcache.ReadReq.misses::switch_cpus.data    313113830                       # number of ReadReq misses (Count)
system.cpu.dcache.ReadReq.misses::total     313113830                       # number of ReadReq misses (Count)
system.cpu.dcache.ReadReq.missLatency::switch_cpus.data 33024154139000                       # number of ReadReq miss ticks (Tick)
system.cpu.dcache.ReadReq.missLatency::total 33024154139000                       # number of ReadReq miss ticks (Tick)
system.cpu.dcache.ReadReq.accesses::switch_cpus.data   2357830625                       # number of ReadReq accesses(hits+misses) (Count)
system.cpu.dcache.ReadReq.accesses::total   2357830625                       # number of ReadReq accesses(hits+misses) (Count)
system.cpu.dcache.ReadReq.missRate::switch_cpus.data     0.132797                       # miss rate for ReadReq accesses (Ratio)
system.cpu.dcache.ReadReq.missRate::total     0.132797                       # miss rate for ReadReq accesses (Ratio)
system.cpu.dcache.ReadReq.avgMissLatency::switch_cpus.data 105470.122923                       # average ReadReq miss latency ((Tick/Count))
system.cpu.dcache.ReadReq.avgMissLatency::total 105470.122923                       # average ReadReq miss latency ((Tick/Count))
system.cpu.dcache.ReadReq.mshrHits::switch_cpus.data    225600296                       # number of ReadReq MSHR hits (Count)
system.cpu.dcache.ReadReq.mshrHits::total    225600296                       # number of ReadReq MSHR hits (Count)
system.cpu.dcache.ReadReq.mshrMisses::switch_cpus.data     87513534                       # number of ReadReq MSHR misses (Count)
system.cpu.dcache.ReadReq.mshrMisses::total     87513534                       # number of ReadReq MSHR misses (Count)
system.cpu.dcache.ReadReq.mshrUncacheable::switch_cpus.data       231999                       # number of ReadReq MSHR uncacheable (Count)
system.cpu.dcache.ReadReq.mshrUncacheable::total       231999                       # number of ReadReq MSHR uncacheable (Count)
system.cpu.dcache.ReadReq.mshrMissLatency::switch_cpus.data 10808166594003                       # number of ReadReq MSHR miss ticks (Tick)
system.cpu.dcache.ReadReq.mshrMissLatency::total 10808166594003                       # number of ReadReq MSHR miss ticks (Tick)
system.cpu.dcache.ReadReq.mshrUncacheableLatency::switch_cpus.data  14722529000                       # number of ReadReq MSHR uncacheable ticks (Tick)
system.cpu.dcache.ReadReq.mshrUncacheableLatency::total  14722529000                       # number of ReadReq MSHR uncacheable ticks (Tick)
system.cpu.dcache.ReadReq.mshrMissRate::switch_cpus.data     0.037116                       # mshr miss rate for ReadReq accesses (Ratio)
system.cpu.dcache.ReadReq.mshrMissRate::total     0.037116                       # mshr miss rate for ReadReq accesses (Ratio)
system.cpu.dcache.ReadReq.avgMshrMissLatency::switch_cpus.data 123502.801224                       # average ReadReq mshr miss latency ((Tick/Count))
system.cpu.dcache.ReadReq.avgMshrMissLatency::total 123502.801224                       # average ReadReq mshr miss latency ((Tick/Count))
system.cpu.dcache.ReadReq.avgMshrUncacheableLatency::switch_cpus.data 63459.450256                       # average ReadReq mshr uncacheable latency ((Tick/Count))
system.cpu.dcache.ReadReq.avgMshrUncacheableLatency::total 63459.450256                       # average ReadReq mshr uncacheable latency ((Tick/Count))
system.cpu.dcache.SoftPFExReq.hits::switch_cpus.data        10818                       # number of SoftPFExReq hits (Count)
system.cpu.dcache.SoftPFExReq.hits::total        10818                       # number of SoftPFExReq hits (Count)
system.cpu.dcache.SoftPFExReq.misses::switch_cpus.data            5                       # number of SoftPFExReq misses (Count)
system.cpu.dcache.SoftPFExReq.misses::total            5                       # number of SoftPFExReq misses (Count)
system.cpu.dcache.SoftPFExReq.accesses::switch_cpus.data        10823                       # number of SoftPFExReq accesses(hits+misses) (Count)
system.cpu.dcache.SoftPFExReq.accesses::total        10823                       # number of SoftPFExReq accesses(hits+misses) (Count)
system.cpu.dcache.SoftPFExReq.missRate::switch_cpus.data     0.000462                       # miss rate for SoftPFExReq accesses (Ratio)
system.cpu.dcache.SoftPFExReq.missRate::total     0.000462                       # miss rate for SoftPFExReq accesses (Ratio)
system.cpu.dcache.SoftPFReq.hits::switch_cpus.data         2075                       # number of SoftPFReq hits (Count)
system.cpu.dcache.SoftPFReq.hits::total          2075                       # number of SoftPFReq hits (Count)
system.cpu.dcache.SoftPFReq.misses::switch_cpus.data         7839                       # number of SoftPFReq misses (Count)
system.cpu.dcache.SoftPFReq.misses::total         7839                       # number of SoftPFReq misses (Count)
system.cpu.dcache.SoftPFReq.accesses::switch_cpus.data         9914                       # number of SoftPFReq accesses(hits+misses) (Count)
system.cpu.dcache.SoftPFReq.accesses::total         9914                       # number of SoftPFReq accesses(hits+misses) (Count)
system.cpu.dcache.SoftPFReq.missRate::switch_cpus.data     0.790700                       # miss rate for SoftPFReq accesses (Ratio)
system.cpu.dcache.SoftPFReq.missRate::total     0.790700                       # miss rate for SoftPFReq accesses (Ratio)
system.cpu.dcache.SoftPFReq.mshrMisses::switch_cpus.data         6861                       # number of SoftPFReq MSHR misses (Count)
system.cpu.dcache.SoftPFReq.mshrMisses::total         6861                       # number of SoftPFReq MSHR misses (Count)
system.cpu.dcache.SoftPFReq.mshrMissLatency::switch_cpus.data    620209500                       # number of SoftPFReq MSHR miss ticks (Tick)
system.cpu.dcache.SoftPFReq.mshrMissLatency::total    620209500                       # number of SoftPFReq MSHR miss ticks (Tick)
system.cpu.dcache.SoftPFReq.mshrMissRate::switch_cpus.data     0.692052                       # mshr miss rate for SoftPFReq accesses (Ratio)
system.cpu.dcache.SoftPFReq.mshrMissRate::total     0.692052                       # mshr miss rate for SoftPFReq accesses (Ratio)
system.cpu.dcache.SoftPFReq.avgMshrMissLatency::switch_cpus.data 90396.370791                       # average SoftPFReq mshr miss latency ((Tick/Count))
system.cpu.dcache.SoftPFReq.avgMshrMissLatency::total 90396.370791                       # average SoftPFReq mshr miss latency ((Tick/Count))
system.cpu.dcache.StoreCondReq.hits::switch_cpus.data          132                       # number of StoreCondReq hits (Count)
system.cpu.dcache.StoreCondReq.hits::total          132                       # number of StoreCondReq hits (Count)
system.cpu.dcache.StoreCondReq.accesses::switch_cpus.data          132                       # number of StoreCondReq accesses(hits+misses) (Count)
system.cpu.dcache.StoreCondReq.accesses::total          132                       # number of StoreCondReq accesses(hits+misses) (Count)
system.cpu.dcache.SwapReq.hits::switch_cpus.data      2824363                       # number of SwapReq hits (Count)
system.cpu.dcache.SwapReq.hits::total         2824363                       # number of SwapReq hits (Count)
system.cpu.dcache.SwapReq.misses::switch_cpus.data        67246                       # number of SwapReq misses (Count)
system.cpu.dcache.SwapReq.misses::total         67246                       # number of SwapReq misses (Count)
system.cpu.dcache.SwapReq.missLatency::switch_cpus.data   5952401000                       # number of SwapReq miss ticks (Tick)
system.cpu.dcache.SwapReq.missLatency::total   5952401000                       # number of SwapReq miss ticks (Tick)
system.cpu.dcache.SwapReq.accesses::switch_cpus.data      2891609                       # number of SwapReq accesses(hits+misses) (Count)
system.cpu.dcache.SwapReq.accesses::total      2891609                       # number of SwapReq accesses(hits+misses) (Count)
system.cpu.dcache.SwapReq.missRate::switch_cpus.data     0.023256                       # miss rate for SwapReq accesses (Ratio)
system.cpu.dcache.SwapReq.missRate::total     0.023256                       # miss rate for SwapReq accesses (Ratio)
system.cpu.dcache.SwapReq.avgMissLatency::switch_cpus.data 88516.803973                       # average SwapReq miss latency ((Tick/Count))
system.cpu.dcache.SwapReq.avgMissLatency::total 88516.803973                       # average SwapReq miss latency ((Tick/Count))
system.cpu.dcache.SwapReq.mshrHits::switch_cpus.data            5                       # number of SwapReq MSHR hits (Count)
system.cpu.dcache.SwapReq.mshrHits::total            5                       # number of SwapReq MSHR hits (Count)
system.cpu.dcache.SwapReq.mshrMisses::switch_cpus.data        67241                       # number of SwapReq MSHR misses (Count)
system.cpu.dcache.SwapReq.mshrMisses::total        67241                       # number of SwapReq MSHR misses (Count)
system.cpu.dcache.SwapReq.mshrMissLatency::switch_cpus.data   5885030000                       # number of SwapReq MSHR miss ticks (Tick)
system.cpu.dcache.SwapReq.mshrMissLatency::total   5885030000                       # number of SwapReq MSHR miss ticks (Tick)
system.cpu.dcache.SwapReq.mshrMissRate::switch_cpus.data     0.023254                       # mshr miss rate for SwapReq accesses (Ratio)
system.cpu.dcache.SwapReq.mshrMissRate::total     0.023254                       # mshr miss rate for SwapReq accesses (Ratio)
system.cpu.dcache.SwapReq.avgMshrMissLatency::switch_cpus.data 87521.452685                       # average SwapReq mshr miss latency ((Tick/Count))
system.cpu.dcache.SwapReq.avgMshrMissLatency::total 87521.452685                       # average SwapReq mshr miss latency ((Tick/Count))
system.cpu.dcache.WriteLineReq.hits::switch_cpus.data        69769                       # number of WriteLineReq hits (Count)
system.cpu.dcache.WriteLineReq.hits::total        69769                       # number of WriteLineReq hits (Count)
system.cpu.dcache.WriteLineReq.misses::switch_cpus.data    114834859                       # number of WriteLineReq misses (Count)
system.cpu.dcache.WriteLineReq.misses::total    114834859                       # number of WriteLineReq misses (Count)
system.cpu.dcache.WriteLineReq.missLatency::switch_cpus.data 6636696828554                       # number of WriteLineReq miss ticks (Tick)
system.cpu.dcache.WriteLineReq.missLatency::total 6636696828554                       # number of WriteLineReq miss ticks (Tick)
system.cpu.dcache.WriteLineReq.accesses::switch_cpus.data    114904628                       # number of WriteLineReq accesses(hits+misses) (Count)
system.cpu.dcache.WriteLineReq.accesses::total    114904628                       # number of WriteLineReq accesses(hits+misses) (Count)
system.cpu.dcache.WriteLineReq.missRate::switch_cpus.data     0.999393                       # miss rate for WriteLineReq accesses (Ratio)
system.cpu.dcache.WriteLineReq.missRate::total     0.999393                       # miss rate for WriteLineReq accesses (Ratio)
system.cpu.dcache.WriteLineReq.avgMissLatency::switch_cpus.data 57793.399028                       # average WriteLineReq miss latency ((Tick/Count))
system.cpu.dcache.WriteLineReq.avgMissLatency::total 57793.399028                       # average WriteLineReq miss latency ((Tick/Count))
system.cpu.dcache.WriteLineReq.mshrHits::switch_cpus.data         1865                       # number of WriteLineReq MSHR hits (Count)
system.cpu.dcache.WriteLineReq.mshrHits::total         1865                       # number of WriteLineReq MSHR hits (Count)
system.cpu.dcache.WriteLineReq.mshrMisses::switch_cpus.data    114832994                       # number of WriteLineReq MSHR misses (Count)
system.cpu.dcache.WriteLineReq.mshrMisses::total    114832994                       # number of WriteLineReq MSHR misses (Count)
system.cpu.dcache.WriteLineReq.mshrMissLatency::switch_cpus.data 6521729443554                       # number of WriteLineReq MSHR miss ticks (Tick)
system.cpu.dcache.WriteLineReq.mshrMissLatency::total 6521729443554                       # number of WriteLineReq MSHR miss ticks (Tick)
system.cpu.dcache.WriteLineReq.mshrMissRate::switch_cpus.data     0.999377                       # mshr miss rate for WriteLineReq accesses (Ratio)
system.cpu.dcache.WriteLineReq.mshrMissRate::total     0.999377                       # mshr miss rate for WriteLineReq accesses (Ratio)
system.cpu.dcache.WriteLineReq.avgMshrMissLatency::switch_cpus.data 56793.167333                       # average WriteLineReq mshr miss latency ((Tick/Count))
system.cpu.dcache.WriteLineReq.avgMshrMissLatency::total 56793.167333                       # average WriteLineReq mshr miss latency ((Tick/Count))
system.cpu.dcache.WriteReq.hits::switch_cpus.data   2008219436                       # number of WriteReq hits (Count)
system.cpu.dcache.WriteReq.hits::total     2008219436                       # number of WriteReq hits (Count)
system.cpu.dcache.WriteReq.misses::switch_cpus.data     56093678                       # number of WriteReq misses (Count)
system.cpu.dcache.WriteReq.misses::total     56093678                       # number of WriteReq misses (Count)
system.cpu.dcache.WriteReq.missLatency::switch_cpus.data 3628185617637                       # number of WriteReq miss ticks (Tick)
system.cpu.dcache.WriteReq.missLatency::total 3628185617637                       # number of WriteReq miss ticks (Tick)
system.cpu.dcache.WriteReq.accesses::switch_cpus.data   2064313114                       # number of WriteReq accesses(hits+misses) (Count)
system.cpu.dcache.WriteReq.accesses::total   2064313114                       # number of WriteReq accesses(hits+misses) (Count)
system.cpu.dcache.WriteReq.missRate::switch_cpus.data     0.027173                       # miss rate for WriteReq accesses (Ratio)
system.cpu.dcache.WriteReq.missRate::total     0.027173                       # miss rate for WriteReq accesses (Ratio)
system.cpu.dcache.WriteReq.avgMissLatency::switch_cpus.data 64680.829409                       # average WriteReq miss latency ((Tick/Count))
system.cpu.dcache.WriteReq.avgMissLatency::total 64680.829409                       # average WriteReq miss latency ((Tick/Count))
system.cpu.dcache.WriteReq.mshrHits::switch_cpus.data     46353755                       # number of WriteReq MSHR hits (Count)
system.cpu.dcache.WriteReq.mshrHits::total     46353755                       # number of WriteReq MSHR hits (Count)
system.cpu.dcache.WriteReq.mshrMisses::switch_cpus.data      9739923                       # number of WriteReq MSHR misses (Count)
system.cpu.dcache.WriteReq.mshrMisses::total      9739923                       # number of WriteReq MSHR misses (Count)
system.cpu.dcache.WriteReq.mshrUncacheable::switch_cpus.data        19069                       # number of WriteReq MSHR uncacheable (Count)
system.cpu.dcache.WriteReq.mshrUncacheable::total        19069                       # number of WriteReq MSHR uncacheable (Count)
system.cpu.dcache.WriteReq.mshrMissLatency::switch_cpus.data 668629866795                       # number of WriteReq MSHR miss ticks (Tick)
system.cpu.dcache.WriteReq.mshrMissLatency::total 668629866795                       # number of WriteReq MSHR miss ticks (Tick)
system.cpu.dcache.WriteReq.mshrMissRate::switch_cpus.data     0.004718                       # mshr miss rate for WriteReq accesses (Ratio)
system.cpu.dcache.WriteReq.mshrMissRate::total     0.004718                       # mshr miss rate for WriteReq accesses (Ratio)
system.cpu.dcache.WriteReq.avgMshrMissLatency::switch_cpus.data 68648.372969                       # average WriteReq mshr miss latency ((Tick/Count))
system.cpu.dcache.WriteReq.avgMshrMissLatency::total 68648.372969                       # average WriteReq mshr miss latency ((Tick/Count))
system.cpu.dcache.power_state.pwrStateResidencyTicks::UNDEFINED 16892983413000                       # Cumulative time (in ticks) in various power states (Tick)
system.cpu.dcache.tags.tagsInUse           528.201323                       # Average ticks per tags in use ((Tick/Count))
system.cpu.dcache.tags.totalRefs           4271190589                       # Total number of references to valid blocks. (Count)
system.cpu.dcache.tags.sampledRefs          211206605                       # Sample count of references to valid blocks. (Count)
system.cpu.dcache.tags.avgRefs              20.222808                       # Average number of references to valid blocks. ((Count/Count))
system.cpu.dcache.tags.warmupTick        8176018369500                       # The tick when the warmup percentage was hit. (Tick)
system.cpu.dcache.tags.occupancies::switch_cpus.data   528.201323                       # Average occupied blocks per tick, per requestor ((Count/Tick))
system.cpu.dcache.tags.avgOccs::switch_cpus.data     0.515822                       # Average percentage of cache occupancy ((Ratio/Tick))
system.cpu.dcache.tags.avgOccs::total        0.515822                       # Average percentage of cache occupancy ((Ratio/Tick))
system.cpu.dcache.tags.tagAccesses        18371246965                       # Number of tag accesses (Count)
system.cpu.dcache.tags.dataAccesses       18371246965                       # Number of data accesses (Count)
system.cpu.dcache.tags.power_state.pwrStateResidencyTicks::UNDEFINED 16892983413000                       # Cumulative time (in ticks) in various power states (Tick)
system.cpu.icache.demandHits::switch_cpus.inst   1874160796                       # number of demand (read+write) hits (Count)
system.cpu.icache.demandHits::total        1874160796                       # number of demand (read+write) hits (Count)
system.cpu.icache.overallHits::switch_cpus.inst   1874160796                       # number of overall hits (Count)
system.cpu.icache.overallHits::total       1874160796                       # number of overall hits (Count)
system.cpu.icache.demandMisses::switch_cpus.inst     15493238                       # number of demand (read+write) misses (Count)
system.cpu.icache.demandMisses::total        15493238                       # number of demand (read+write) misses (Count)
system.cpu.icache.overallMisses::switch_cpus.inst     15493238                       # number of overall misses (Count)
system.cpu.icache.overallMisses::total       15493238                       # number of overall misses (Count)
system.cpu.icache.demandMissLatency::switch_cpus.inst 964105915006                       # number of demand (read+write) miss ticks (Tick)
system.cpu.icache.demandMissLatency::total 964105915006                       # number of demand (read+write) miss ticks (Tick)
system.cpu.icache.overallMissLatency::switch_cpus.inst 964105915006                       # number of overall miss ticks (Tick)
system.cpu.icache.overallMissLatency::total 964105915006                       # number of overall miss ticks (Tick)
system.cpu.icache.demandAccesses::switch_cpus.inst   1889654034                       # number of demand (read+write) accesses (Count)
system.cpu.icache.demandAccesses::total    1889654034                       # number of demand (read+write) accesses (Count)
system.cpu.icache.overallAccesses::switch_cpus.inst   1889654034                       # number of overall (read+write) accesses (Count)
system.cpu.icache.overallAccesses::total   1889654034                       # number of overall (read+write) accesses (Count)
system.cpu.icache.demandMissRate::switch_cpus.inst     0.008199                       # miss rate for demand accesses (Ratio)
system.cpu.icache.demandMissRate::total      0.008199                       # miss rate for demand accesses (Ratio)
system.cpu.icache.overallMissRate::switch_cpus.inst     0.008199                       # miss rate for overall accesses (Ratio)
system.cpu.icache.overallMissRate::total     0.008199                       # miss rate for overall accesses (Ratio)
system.cpu.icache.demandAvgMissLatency::switch_cpus.inst 62227.528875                       # average overall miss latency in ticks ((Tick/Count))
system.cpu.icache.demandAvgMissLatency::total 62227.528875                       # average overall miss latency in ticks ((Tick/Count))
system.cpu.icache.overallAvgMissLatency::switch_cpus.inst 62227.528875                       # average overall miss latency ((Tick/Count))
system.cpu.icache.overallAvgMissLatency::total 62227.528875                       # average overall miss latency ((Tick/Count))
system.cpu.icache.blockedCycles::no_mshrs      1549926                       # number of cycles access was blocked (Cycle)
system.cpu.icache.blockedCycles::no_targets            0                       # number of cycles access was blocked (Cycle)
system.cpu.icache.blockedCauses::no_mshrs        30658                       # number of times access was blocked (Count)
system.cpu.icache.blockedCauses::no_targets            0                       # number of times access was blocked (Count)
system.cpu.icache.avgBlocked::no_mshrs      50.555353                       # average number of cycles each access was blocked ((Cycle/Count))
system.cpu.icache.avgBlocked::no_targets          nan                       # average number of cycles each access was blocked ((Cycle/Count))
system.cpu.icache.writebacks::writebacks     13982734                       # number of writebacks (Count)
system.cpu.icache.writebacks::total          13982734                       # number of writebacks (Count)
system.cpu.icache.demandMshrHits::switch_cpus.inst      1509480                       # number of demand (read+write) MSHR hits (Count)
system.cpu.icache.demandMshrHits::total       1509480                       # number of demand (read+write) MSHR hits (Count)
system.cpu.icache.overallMshrHits::switch_cpus.inst      1509480                       # number of overall MSHR hits (Count)
system.cpu.icache.overallMshrHits::total      1509480                       # number of overall MSHR hits (Count)
system.cpu.icache.demandMshrMisses::switch_cpus.inst     13983758                       # number of demand (read+write) MSHR misses (Count)
system.cpu.icache.demandMshrMisses::total     13983758                       # number of demand (read+write) MSHR misses (Count)
system.cpu.icache.overallMshrMisses::switch_cpus.inst     13983758                       # number of overall MSHR misses (Count)
system.cpu.icache.overallMshrMisses::total     13983758                       # number of overall MSHR misses (Count)
system.cpu.icache.demandMshrMissLatency::switch_cpus.inst 838210816305                       # number of demand (read+write) MSHR miss ticks (Tick)
system.cpu.icache.demandMshrMissLatency::total 838210816305                       # number of demand (read+write) MSHR miss ticks (Tick)
system.cpu.icache.overallMshrMissLatency::switch_cpus.inst 838210816305                       # number of overall MSHR miss ticks (Tick)
system.cpu.icache.overallMshrMissLatency::total 838210816305                       # number of overall MSHR miss ticks (Tick)
system.cpu.icache.demandMshrMissRate::switch_cpus.inst     0.007400                       # mshr miss ratio for demand accesses (Ratio)
system.cpu.icache.demandMshrMissRate::total     0.007400                       # mshr miss ratio for demand accesses (Ratio)
system.cpu.icache.overallMshrMissRate::switch_cpus.inst     0.007400                       # mshr miss ratio for overall accesses (Ratio)
system.cpu.icache.overallMshrMissRate::total     0.007400                       # mshr miss ratio for overall accesses (Ratio)
system.cpu.icache.demandAvgMshrMissLatency::switch_cpus.inst 59941.742149                       # average overall mshr miss latency ((Tick/Count))
system.cpu.icache.demandAvgMshrMissLatency::total 59941.742149                       # average overall mshr miss latency ((Tick/Count))
system.cpu.icache.overallAvgMshrMissLatency::switch_cpus.inst 59941.742149                       # average overall mshr miss latency ((Tick/Count))
system.cpu.icache.overallAvgMshrMissLatency::total 59941.742149                       # average overall mshr miss latency ((Tick/Count))
system.cpu.icache.replacements               13982734                       # number of replacements (Count)
system.cpu.icache.ReadReq.hits::switch_cpus.inst   1874160796                       # number of ReadReq hits (Count)
system.cpu.icache.ReadReq.hits::total      1874160796                       # number of ReadReq hits (Count)
system.cpu.icache.ReadReq.misses::switch_cpus.inst     15493238                       # number of ReadReq misses (Count)
system.cpu.icache.ReadReq.misses::total      15493238                       # number of ReadReq misses (Count)
system.cpu.icache.ReadReq.missLatency::switch_cpus.inst 964105915006                       # number of ReadReq miss ticks (Tick)
system.cpu.icache.ReadReq.missLatency::total 964105915006                       # number of ReadReq miss ticks (Tick)
system.cpu.icache.ReadReq.accesses::switch_cpus.inst   1889654034                       # number of ReadReq accesses(hits+misses) (Count)
system.cpu.icache.ReadReq.accesses::total   1889654034                       # number of ReadReq accesses(hits+misses) (Count)
system.cpu.icache.ReadReq.missRate::switch_cpus.inst     0.008199                       # miss rate for ReadReq accesses (Ratio)
system.cpu.icache.ReadReq.missRate::total     0.008199                       # miss rate for ReadReq accesses (Ratio)
system.cpu.icache.ReadReq.avgMissLatency::switch_cpus.inst 62227.528875                       # average ReadReq miss latency ((Tick/Count))
system.cpu.icache.ReadReq.avgMissLatency::total 62227.528875                       # average ReadReq miss latency ((Tick/Count))
system.cpu.icache.ReadReq.mshrHits::switch_cpus.inst      1509480                       # number of ReadReq MSHR hits (Count)
system.cpu.icache.ReadReq.mshrHits::total      1509480                       # number of ReadReq MSHR hits (Count)
system.cpu.icache.ReadReq.mshrMisses::switch_cpus.inst     13983758                       # number of ReadReq MSHR misses (Count)
system.cpu.icache.ReadReq.mshrMisses::total     13983758                       # number of ReadReq MSHR misses (Count)
system.cpu.icache.ReadReq.mshrMissLatency::switch_cpus.inst 838210816305                       # number of ReadReq MSHR miss ticks (Tick)
system.cpu.icache.ReadReq.mshrMissLatency::total 838210816305                       # number of ReadReq MSHR miss ticks (Tick)
system.cpu.icache.ReadReq.mshrMissRate::switch_cpus.inst     0.007400                       # mshr miss rate for ReadReq accesses (Ratio)
system.cpu.icache.ReadReq.mshrMissRate::total     0.007400                       # mshr miss rate for ReadReq accesses (Ratio)
system.cpu.icache.ReadReq.avgMshrMissLatency::switch_cpus.inst 59941.742149                       # average ReadReq mshr miss latency ((Tick/Count))
system.cpu.icache.ReadReq.avgMshrMissLatency::total 59941.742149                       # average ReadReq mshr miss latency ((Tick/Count))
system.cpu.icache.power_state.pwrStateResidencyTicks::UNDEFINED 16892983413000                       # Cumulative time (in ticks) in various power states (Tick)
system.cpu.icache.tags.tagsInUse           528.198693                       # Average ticks per tags in use ((Tick/Count))
system.cpu.icache.tags.totalRefs           1888144554                       # Total number of references to valid blocks. (Count)
system.cpu.icache.tags.sampledRefs           13983758                       # Sample count of references to valid blocks. (Count)
system.cpu.icache.tags.avgRefs             135.024115                       # Average number of references to valid blocks. ((Count/Count))
system.cpu.icache.tags.warmupTick        8176017885500                       # The tick when the warmup percentage was hit. (Tick)
system.cpu.icache.tags.occupancies::switch_cpus.inst   528.198693                       # Average occupied blocks per tick, per requestor ((Count/Tick))
system.cpu.icache.tags.avgOccs::switch_cpus.inst     0.515819                       # Average percentage of cache occupancy ((Ratio/Tick))
system.cpu.icache.tags.avgOccs::total        0.515819                       # Average percentage of cache occupancy ((Ratio/Tick))
system.cpu.icache.tags.tagAccesses         7572599894                       # Number of tag accesses (Count)
system.cpu.icache.tags.dataAccesses        7572599894                       # Number of data accesses (Count)
system.cpu.icache.tags.power_state.pwrStateResidencyTicks::UNDEFINED 16892983413000                       # Cumulative time (in ticks) in various power states (Tick)
system.cpu.l2cache.demandHits::switch_cpus.mmu.dtb_walker      1148720                       # number of demand (read+write) hits (Count)
system.cpu.l2cache.demandHits::switch_cpus.mmu.itb_walker        45182                       # number of demand (read+write) hits (Count)
system.cpu.l2cache.demandHits::switch_cpus.inst      6894498                       # number of demand (read+write) hits (Count)
system.cpu.l2cache.demandHits::switch_cpus.data     10721434                       # number of demand (read+write) hits (Count)
system.cpu.l2cache.demandHits::total         18809834                       # number of demand (read+write) hits (Count)
system.cpu.l2cache.overallHits::switch_cpus.mmu.dtb_walker      1148720                       # number of overall hits (Count)
system.cpu.l2cache.overallHits::switch_cpus.mmu.itb_walker        45182                       # number of overall hits (Count)
system.cpu.l2cache.overallHits::switch_cpus.inst      6894498                       # number of overall hits (Count)
system.cpu.l2cache.overallHits::switch_cpus.data     10721434                       # number of overall hits (Count)
system.cpu.l2cache.overallHits::total        18809834                       # number of overall hits (Count)
system.cpu.l2cache.demandMisses::switch_cpus.mmu.dtb_walker       332108                       # number of demand (read+write) misses (Count)
system.cpu.l2cache.demandMisses::switch_cpus.mmu.itb_walker        43274                       # number of demand (read+write) misses (Count)
system.cpu.l2cache.demandMisses::switch_cpus.inst      7089260                       # number of demand (read+write) misses (Count)
system.cpu.l2cache.demandMisses::switch_cpus.data     85620519                       # number of demand (read+write) misses (Count)
system.cpu.l2cache.demandMisses::total       93085161                       # number of demand (read+write) misses (Count)
system.cpu.l2cache.overallMisses::switch_cpus.mmu.dtb_walker       332108                       # number of overall misses (Count)
system.cpu.l2cache.overallMisses::switch_cpus.mmu.itb_walker        43274                       # number of overall misses (Count)
system.cpu.l2cache.overallMisses::switch_cpus.inst      7089260                       # number of overall misses (Count)
system.cpu.l2cache.overallMisses::switch_cpus.data     85620519                       # number of overall misses (Count)
system.cpu.l2cache.overallMisses::total      93085161                       # number of overall misses (Count)
system.cpu.l2cache.demandMissLatency::switch_cpus.mmu.dtb_walker  40784499739                       # number of demand (read+write) miss ticks (Tick)
system.cpu.l2cache.demandMissLatency::switch_cpus.mmu.itb_walker   4588806738                       # number of demand (read+write) miss ticks (Tick)
system.cpu.l2cache.demandMissLatency::switch_cpus.inst 743840551500                       # number of demand (read+write) miss ticks (Tick)
system.cpu.l2cache.demandMissLatency::switch_cpus.data 11206498239500                       # number of demand (read+write) miss ticks (Tick)
system.cpu.l2cache.demandMissLatency::total 11995712097477                       # number of demand (read+write) miss ticks (Tick)
system.cpu.l2cache.overallMissLatency::switch_cpus.mmu.dtb_walker  40784499739                       # number of overall miss ticks (Tick)
system.cpu.l2cache.overallMissLatency::switch_cpus.mmu.itb_walker   4588806738                       # number of overall miss ticks (Tick)
system.cpu.l2cache.overallMissLatency::switch_cpus.inst 743840551500                       # number of overall miss ticks (Tick)
system.cpu.l2cache.overallMissLatency::switch_cpus.data 11206498239500                       # number of overall miss ticks (Tick)
system.cpu.l2cache.overallMissLatency::total 11995712097477                       # number of overall miss ticks (Tick)
system.cpu.l2cache.demandAccesses::switch_cpus.mmu.dtb_walker      1480828                       # number of demand (read+write) accesses (Count)
system.cpu.l2cache.demandAccesses::switch_cpus.mmu.itb_walker        88456                       # number of demand (read+write) accesses (Count)
system.cpu.l2cache.demandAccesses::switch_cpus.inst     13983758                       # number of demand (read+write) accesses (Count)
system.cpu.l2cache.demandAccesses::switch_cpus.data     96341953                       # number of demand (read+write) accesses (Count)
system.cpu.l2cache.demandAccesses::total    111894995                       # number of demand (read+write) accesses (Count)
system.cpu.l2cache.overallAccesses::switch_cpus.mmu.dtb_walker      1480828                       # number of overall (read+write) accesses (Count)
system.cpu.l2cache.overallAccesses::switch_cpus.mmu.itb_walker        88456                       # number of overall (read+write) accesses (Count)
system.cpu.l2cache.overallAccesses::switch_cpus.inst     13983758                       # number of overall (read+write) accesses (Count)
system.cpu.l2cache.overallAccesses::switch_cpus.data     96341953                       # number of overall (read+write) accesses (Count)
system.cpu.l2cache.overallAccesses::total    111894995                       # number of overall (read+write) accesses (Count)
system.cpu.l2cache.demandMissRate::switch_cpus.mmu.dtb_walker     0.224272                       # miss rate for demand accesses (Ratio)
system.cpu.l2cache.demandMissRate::switch_cpus.mmu.itb_walker     0.489215                       # miss rate for demand accesses (Ratio)
system.cpu.l2cache.demandMissRate::switch_cpus.inst     0.506964                       # miss rate for demand accesses (Ratio)
system.cpu.l2cache.demandMissRate::switch_cpus.data     0.888715                       # miss rate for demand accesses (Ratio)
system.cpu.l2cache.demandMissRate::total     0.831897                       # miss rate for demand accesses (Ratio)
system.cpu.l2cache.overallMissRate::switch_cpus.mmu.dtb_walker     0.224272                       # miss rate for overall accesses (Ratio)
system.cpu.l2cache.overallMissRate::switch_cpus.mmu.itb_walker     0.489215                       # miss rate for overall accesses (Ratio)
system.cpu.l2cache.overallMissRate::switch_cpus.inst     0.506964                       # miss rate for overall accesses (Ratio)
system.cpu.l2cache.overallMissRate::switch_cpus.data     0.888715                       # miss rate for overall accesses (Ratio)
system.cpu.l2cache.overallMissRate::total     0.831897                       # miss rate for overall accesses (Ratio)
system.cpu.l2cache.demandAvgMissLatency::switch_cpus.mmu.dtb_walker 122804.930140                       # average overall miss latency in ticks ((Tick/Count))
system.cpu.l2cache.demandAvgMissLatency::switch_cpus.mmu.itb_walker 106040.734344                       # average overall miss latency in ticks ((Tick/Count))
system.cpu.l2cache.demandAvgMissLatency::switch_cpus.inst 104924.992383                       # average overall miss latency in ticks ((Tick/Count))
system.cpu.l2cache.demandAvgMissLatency::switch_cpus.data 130885.661175                       # average overall miss latency in ticks ((Tick/Count))
system.cpu.l2cache.demandAvgMissLatency::total 128868.145778                       # average overall miss latency in ticks ((Tick/Count))
system.cpu.l2cache.overallAvgMissLatency::switch_cpus.mmu.dtb_walker 122804.930140                       # average overall miss latency ((Tick/Count))
system.cpu.l2cache.overallAvgMissLatency::switch_cpus.mmu.itb_walker 106040.734344                       # average overall miss latency ((Tick/Count))
system.cpu.l2cache.overallAvgMissLatency::switch_cpus.inst 104924.992383                       # average overall miss latency ((Tick/Count))
system.cpu.l2cache.overallAvgMissLatency::switch_cpus.data 130885.661175                       # average overall miss latency ((Tick/Count))
system.cpu.l2cache.overallAvgMissLatency::total 128868.145778                       # average overall miss latency ((Tick/Count))
system.cpu.l2cache.blockedCycles::no_mshrs            0                       # number of cycles access was blocked (Cycle)
system.cpu.l2cache.blockedCycles::no_targets            0                       # number of cycles access was blocked (Cycle)
system.cpu.l2cache.blockedCauses::no_mshrs            0                       # number of times access was blocked (Count)
system.cpu.l2cache.blockedCauses::no_targets            0                       # number of times access was blocked (Count)
system.cpu.l2cache.avgBlocked::no_mshrs           nan                       # average number of cycles each access was blocked ((Cycle/Count))
system.cpu.l2cache.avgBlocked::no_targets          nan                       # average number of cycles each access was blocked ((Cycle/Count))
system.cpu.l2cache.writebacks::writebacks    123459497                       # number of writebacks (Count)
system.cpu.l2cache.writebacks::total        123459497                       # number of writebacks (Count)
system.cpu.l2cache.demandMshrHits::switch_cpus.mmu.dtb_walker           18                       # number of demand (read+write) MSHR hits (Count)
system.cpu.l2cache.demandMshrHits::switch_cpus.mmu.itb_walker           47                       # number of demand (read+write) MSHR hits (Count)
system.cpu.l2cache.demandMshrHits::switch_cpus.data            1                       # number of demand (read+write) MSHR hits (Count)
system.cpu.l2cache.demandMshrHits::total           66                       # number of demand (read+write) MSHR hits (Count)
system.cpu.l2cache.overallMshrHits::switch_cpus.mmu.dtb_walker           18                       # number of overall MSHR hits (Count)
system.cpu.l2cache.overallMshrHits::switch_cpus.mmu.itb_walker           47                       # number of overall MSHR hits (Count)
system.cpu.l2cache.overallMshrHits::switch_cpus.data            1                       # number of overall MSHR hits (Count)
system.cpu.l2cache.overallMshrHits::total           66                       # number of overall MSHR hits (Count)
system.cpu.l2cache.demandMshrMisses::switch_cpus.mmu.dtb_walker       332090                       # number of demand (read+write) MSHR misses (Count)
system.cpu.l2cache.demandMshrMisses::switch_cpus.mmu.itb_walker        43227                       # number of demand (read+write) MSHR misses (Count)
system.cpu.l2cache.demandMshrMisses::switch_cpus.inst      7089260                       # number of demand (read+write) MSHR misses (Count)
system.cpu.l2cache.demandMshrMisses::switch_cpus.data     85620518                       # number of demand (read+write) MSHR misses (Count)
system.cpu.l2cache.demandMshrMisses::total     93085095                       # number of demand (read+write) MSHR misses (Count)
system.cpu.l2cache.overallMshrMisses::switch_cpus.mmu.dtb_walker       332090                       # number of overall MSHR misses (Count)
system.cpu.l2cache.overallMshrMisses::switch_cpus.mmu.itb_walker        43227                       # number of overall MSHR misses (Count)
system.cpu.l2cache.overallMshrMisses::switch_cpus.inst      7089260                       # number of overall MSHR misses (Count)
system.cpu.l2cache.overallMshrMisses::switch_cpus.data     85620518                       # number of overall MSHR misses (Count)
system.cpu.l2cache.overallMshrMisses::total     93085095                       # number of overall MSHR misses (Count)
system.cpu.l2cache.overallMshrUncacheable::switch_cpus.data       251068                       # number of overall MSHR uncacheable misses (Count)
system.cpu.l2cache.overallMshrUncacheable::total       251068                       # number of overall MSHR uncacheable misses (Count)
system.cpu.l2cache.demandMshrMissLatency::switch_cpus.mmu.dtb_walker  37461999246                       # number of demand (read+write) MSHR miss ticks (Tick)
system.cpu.l2cache.demandMshrMissLatency::switch_cpus.mmu.itb_walker   4153010265                       # number of demand (read+write) MSHR miss ticks (Tick)
system.cpu.l2cache.demandMshrMissLatency::switch_cpus.inst 672947951500                       # number of demand (read+write) MSHR miss ticks (Tick)
system.cpu.l2cache.demandMshrMissLatency::switch_cpus.data 10350292985000                       # number of demand (read+write) MSHR miss ticks (Tick)
system.cpu.l2cache.demandMshrMissLatency::total 11064855946011                       # number of demand (read+write) MSHR miss ticks (Tick)
system.cpu.l2cache.overallMshrMissLatency::switch_cpus.mmu.dtb_walker  37461999246                       # number of overall MSHR miss ticks (Tick)
system.cpu.l2cache.overallMshrMissLatency::switch_cpus.mmu.itb_walker   4153010265                       # number of overall MSHR miss ticks (Tick)
system.cpu.l2cache.overallMshrMissLatency::switch_cpus.inst 672947951500                       # number of overall MSHR miss ticks (Tick)
system.cpu.l2cache.overallMshrMissLatency::switch_cpus.data 10350292985000                       # number of overall MSHR miss ticks (Tick)
system.cpu.l2cache.overallMshrMissLatency::total 11064855946011                       # number of overall MSHR miss ticks (Tick)
system.cpu.l2cache.overallMshrUncacheableLatency::switch_cpus.data  11935531000                       # number of overall MSHR uncacheable ticks (Tick)
system.cpu.l2cache.overallMshrUncacheableLatency::total  11935531000                       # number of overall MSHR uncacheable ticks (Tick)
system.cpu.l2cache.demandMshrMissRate::switch_cpus.mmu.dtb_walker     0.224260                       # mshr miss ratio for demand accesses (Ratio)
system.cpu.l2cache.demandMshrMissRate::switch_cpus.mmu.itb_walker     0.488684                       # mshr miss ratio for demand accesses (Ratio)
system.cpu.l2cache.demandMshrMissRate::switch_cpus.inst     0.506964                       # mshr miss ratio for demand accesses (Ratio)
system.cpu.l2cache.demandMshrMissRate::switch_cpus.data     0.888715                       # mshr miss ratio for demand accesses (Ratio)
system.cpu.l2cache.demandMshrMissRate::total     0.831897                       # mshr miss ratio for demand accesses (Ratio)
system.cpu.l2cache.overallMshrMissRate::switch_cpus.mmu.dtb_walker     0.224260                       # mshr miss ratio for overall accesses (Ratio)
system.cpu.l2cache.overallMshrMissRate::switch_cpus.mmu.itb_walker     0.488684                       # mshr miss ratio for overall accesses (Ratio)
system.cpu.l2cache.overallMshrMissRate::switch_cpus.inst     0.506964                       # mshr miss ratio for overall accesses (Ratio)
system.cpu.l2cache.overallMshrMissRate::switch_cpus.data     0.888715                       # mshr miss ratio for overall accesses (Ratio)
system.cpu.l2cache.overallMshrMissRate::total     0.831897                       # mshr miss ratio for overall accesses (Ratio)
system.cpu.l2cache.demandAvgMshrMissLatency::switch_cpus.mmu.dtb_walker 112806.766979                       # average overall mshr miss latency ((Tick/Count))
system.cpu.l2cache.demandAvgMshrMissLatency::switch_cpus.mmu.itb_walker 96074.450344                       # average overall mshr miss latency ((Tick/Count))
system.cpu.l2cache.demandAvgMshrMissLatency::switch_cpus.inst 94924.992383                       # average overall mshr miss latency ((Tick/Count))
system.cpu.l2cache.demandAvgMshrMissLatency::switch_cpus.data 120885.661834                       # average overall mshr miss latency ((Tick/Count))
system.cpu.l2cache.demandAvgMshrMissLatency::total 118868.181270                       # average overall mshr miss latency ((Tick/Count))
system.cpu.l2cache.overallAvgMshrMissLatency::switch_cpus.mmu.dtb_walker 112806.766979                       # average overall mshr miss latency ((Tick/Count))
system.cpu.l2cache.overallAvgMshrMissLatency::switch_cpus.mmu.itb_walker 96074.450344                       # average overall mshr miss latency ((Tick/Count))
system.cpu.l2cache.overallAvgMshrMissLatency::switch_cpus.inst 94924.992383                       # average overall mshr miss latency ((Tick/Count))
system.cpu.l2cache.overallAvgMshrMissLatency::switch_cpus.data 120885.661834                       # average overall mshr miss latency ((Tick/Count))
system.cpu.l2cache.overallAvgMshrMissLatency::total 118868.181270                       # average overall mshr miss latency ((Tick/Count))
system.cpu.l2cache.overallAvgMshrUncacheableLatency::switch_cpus.data 47539.037233                       # average overall mshr uncacheable latency ((Tick/Count))
system.cpu.l2cache.overallAvgMshrUncacheableLatency::total 47539.037233                       # average overall mshr uncacheable latency ((Tick/Count))
system.cpu.l2cache.replacements             213882718                       # number of replacements (Count)
system.cpu.l2cache.CleanEvict.mshrMisses::writebacks       166095                       # number of CleanEvict MSHR misses (Count)
system.cpu.l2cache.CleanEvict.mshrMisses::total       166095                       # number of CleanEvict MSHR misses (Count)
system.cpu.l2cache.CleanEvict.mshrMissRate::writebacks          inf                       # mshr miss rate for CleanEvict accesses (Ratio)
system.cpu.l2cache.CleanEvict.mshrMissRate::total          inf                       # mshr miss rate for CleanEvict accesses (Ratio)
system.cpu.l2cache.InvalidateReq.hits::switch_cpus.data        24824                       # number of InvalidateReq hits (Count)
system.cpu.l2cache.InvalidateReq.hits::total        24824                       # number of InvalidateReq hits (Count)
system.cpu.l2cache.InvalidateReq.misses::switch_cpus.data    114839903                       # number of InvalidateReq misses (Count)
system.cpu.l2cache.InvalidateReq.misses::total    114839903                       # number of InvalidateReq misses (Count)
system.cpu.l2cache.InvalidateReq.accesses::switch_cpus.data    114864727                       # number of InvalidateReq accesses(hits+misses) (Count)
system.cpu.l2cache.InvalidateReq.accesses::total    114864727                       # number of InvalidateReq accesses(hits+misses) (Count)
system.cpu.l2cache.InvalidateReq.missRate::switch_cpus.data     0.999784                       # miss rate for InvalidateReq accesses (Ratio)
system.cpu.l2cache.InvalidateReq.missRate::total     0.999784                       # miss rate for InvalidateReq accesses (Ratio)
system.cpu.l2cache.InvalidateReq.mshrMisses::switch_cpus.data    114839903                       # number of InvalidateReq MSHR misses (Count)
system.cpu.l2cache.InvalidateReq.mshrMisses::total    114839903                       # number of InvalidateReq MSHR misses (Count)
system.cpu.l2cache.InvalidateReq.mshrMissLatency::switch_cpus.data 5041269361000                       # number of InvalidateReq MSHR miss ticks (Tick)
system.cpu.l2cache.InvalidateReq.mshrMissLatency::total 5041269361000                       # number of InvalidateReq MSHR miss ticks (Tick)
system.cpu.l2cache.InvalidateReq.mshrMissRate::switch_cpus.data     0.999784                       # mshr miss rate for InvalidateReq accesses (Ratio)
system.cpu.l2cache.InvalidateReq.mshrMissRate::total     0.999784                       # mshr miss rate for InvalidateReq accesses (Ratio)
system.cpu.l2cache.InvalidateReq.avgMshrMissLatency::switch_cpus.data 43898.237714                       # average InvalidateReq mshr miss latency ((Tick/Count))
system.cpu.l2cache.InvalidateReq.avgMshrMissLatency::total 43898.237714                       # average InvalidateReq mshr miss latency ((Tick/Count))
system.cpu.l2cache.ReadCleanReq.hits::switch_cpus.inst      6894498                       # number of ReadCleanReq hits (Count)
system.cpu.l2cache.ReadCleanReq.hits::total      6894498                       # number of ReadCleanReq hits (Count)
system.cpu.l2cache.ReadCleanReq.misses::switch_cpus.inst      7089260                       # number of ReadCleanReq misses (Count)
system.cpu.l2cache.ReadCleanReq.misses::total      7089260                       # number of ReadCleanReq misses (Count)
system.cpu.l2cache.ReadCleanReq.missLatency::switch_cpus.inst 743840551500                       # number of ReadCleanReq miss ticks (Tick)
system.cpu.l2cache.ReadCleanReq.missLatency::total 743840551500                       # number of ReadCleanReq miss ticks (Tick)
system.cpu.l2cache.ReadCleanReq.accesses::switch_cpus.inst     13983758                       # number of ReadCleanReq accesses(hits+misses) (Count)
system.cpu.l2cache.ReadCleanReq.accesses::total     13983758                       # number of ReadCleanReq accesses(hits+misses) (Count)
system.cpu.l2cache.ReadCleanReq.missRate::switch_cpus.inst     0.506964                       # miss rate for ReadCleanReq accesses (Ratio)
system.cpu.l2cache.ReadCleanReq.missRate::total     0.506964                       # miss rate for ReadCleanReq accesses (Ratio)
system.cpu.l2cache.ReadCleanReq.avgMissLatency::switch_cpus.inst 104924.992383                       # average ReadCleanReq miss latency ((Tick/Count))
system.cpu.l2cache.ReadCleanReq.avgMissLatency::total 104924.992383                       # average ReadCleanReq miss latency ((Tick/Count))
system.cpu.l2cache.ReadCleanReq.mshrMisses::switch_cpus.inst      7089260                       # number of ReadCleanReq MSHR misses (Count)
system.cpu.l2cache.ReadCleanReq.mshrMisses::total      7089260                       # number of ReadCleanReq MSHR misses (Count)
system.cpu.l2cache.ReadCleanReq.mshrMissLatency::switch_cpus.inst 672947951500                       # number of ReadCleanReq MSHR miss ticks (Tick)
system.cpu.l2cache.ReadCleanReq.mshrMissLatency::total 672947951500                       # number of ReadCleanReq MSHR miss ticks (Tick)
system.cpu.l2cache.ReadCleanReq.mshrMissRate::switch_cpus.inst     0.506964                       # mshr miss rate for ReadCleanReq accesses (Ratio)
system.cpu.l2cache.ReadCleanReq.mshrMissRate::total     0.506964                       # mshr miss rate for ReadCleanReq accesses (Ratio)
system.cpu.l2cache.ReadCleanReq.avgMshrMissLatency::switch_cpus.inst 94924.992383                       # average ReadCleanReq mshr miss latency ((Tick/Count))
system.cpu.l2cache.ReadCleanReq.avgMshrMissLatency::total 94924.992383                       # average ReadCleanReq mshr miss latency ((Tick/Count))
system.cpu.l2cache.ReadExReq.hits::switch_cpus.data      3206914                       # number of ReadExReq hits (Count)
system.cpu.l2cache.ReadExReq.hits::total      3206914                       # number of ReadExReq hits (Count)
system.cpu.l2cache.ReadExReq.misses::switch_cpus.data      5615497                       # number of ReadExReq misses (Count)
system.cpu.l2cache.ReadExReq.misses::total      5615497                       # number of ReadExReq misses (Count)
system.cpu.l2cache.ReadExReq.missLatency::switch_cpus.data 610580723000                       # number of ReadExReq miss ticks (Tick)
system.cpu.l2cache.ReadExReq.missLatency::total 610580723000                       # number of ReadExReq miss ticks (Tick)
system.cpu.l2cache.ReadExReq.accesses::switch_cpus.data      8822411                       # number of ReadExReq accesses(hits+misses) (Count)
system.cpu.l2cache.ReadExReq.accesses::total      8822411                       # number of ReadExReq accesses(hits+misses) (Count)
system.cpu.l2cache.ReadExReq.missRate::switch_cpus.data     0.636504                       # miss rate for ReadExReq accesses (Ratio)
system.cpu.l2cache.ReadExReq.missRate::total     0.636504                       # miss rate for ReadExReq accesses (Ratio)
system.cpu.l2cache.ReadExReq.avgMissLatency::switch_cpus.data 108731.377294                       # average ReadExReq miss latency ((Tick/Count))
system.cpu.l2cache.ReadExReq.avgMissLatency::total 108731.377294                       # average ReadExReq miss latency ((Tick/Count))
system.cpu.l2cache.ReadExReq.mshrMisses::switch_cpus.data      5615497                       # number of ReadExReq MSHR misses (Count)
system.cpu.l2cache.ReadExReq.mshrMisses::total      5615497                       # number of ReadExReq MSHR misses (Count)
system.cpu.l2cache.ReadExReq.mshrMissLatency::switch_cpus.data 554425753000                       # number of ReadExReq MSHR miss ticks (Tick)
system.cpu.l2cache.ReadExReq.mshrMissLatency::total 554425753000                       # number of ReadExReq MSHR miss ticks (Tick)
system.cpu.l2cache.ReadExReq.mshrMissRate::switch_cpus.data     0.636504                       # mshr miss rate for ReadExReq accesses (Ratio)
system.cpu.l2cache.ReadExReq.mshrMissRate::total     0.636504                       # mshr miss rate for ReadExReq accesses (Ratio)
system.cpu.l2cache.ReadExReq.avgMshrMissLatency::switch_cpus.data 98731.377294                       # average ReadExReq mshr miss latency ((Tick/Count))
system.cpu.l2cache.ReadExReq.avgMshrMissLatency::total 98731.377294                       # average ReadExReq mshr miss latency ((Tick/Count))
system.cpu.l2cache.ReadReq.hits::switch_cpus.mmu.dtb_walker      1148720                       # number of ReadReq hits (Count)
system.cpu.l2cache.ReadReq.hits::switch_cpus.mmu.itb_walker        45182                       # number of ReadReq hits (Count)
system.cpu.l2cache.ReadReq.hits::total        1193902                       # number of ReadReq hits (Count)
system.cpu.l2cache.ReadReq.misses::switch_cpus.mmu.dtb_walker       332108                       # number of ReadReq misses (Count)
system.cpu.l2cache.ReadReq.misses::switch_cpus.mmu.itb_walker        43274                       # number of ReadReq misses (Count)
system.cpu.l2cache.ReadReq.misses::total       375382                       # number of ReadReq misses (Count)
system.cpu.l2cache.ReadReq.missLatency::switch_cpus.mmu.dtb_walker  40784499739                       # number of ReadReq miss ticks (Tick)
system.cpu.l2cache.ReadReq.missLatency::switch_cpus.mmu.itb_walker   4588806738                       # number of ReadReq miss ticks (Tick)
system.cpu.l2cache.ReadReq.missLatency::total  45373306477                       # number of ReadReq miss ticks (Tick)
system.cpu.l2cache.ReadReq.accesses::switch_cpus.mmu.dtb_walker      1480828                       # number of ReadReq accesses(hits+misses) (Count)
system.cpu.l2cache.ReadReq.accesses::switch_cpus.mmu.itb_walker        88456                       # number of ReadReq accesses(hits+misses) (Count)
system.cpu.l2cache.ReadReq.accesses::total      1569284                       # number of ReadReq accesses(hits+misses) (Count)
system.cpu.l2cache.ReadReq.missRate::switch_cpus.mmu.dtb_walker     0.224272                       # miss rate for ReadReq accesses (Ratio)
system.cpu.l2cache.ReadReq.missRate::switch_cpus.mmu.itb_walker     0.489215                       # miss rate for ReadReq accesses (Ratio)
system.cpu.l2cache.ReadReq.missRate::total     0.239206                       # miss rate for ReadReq accesses (Ratio)
system.cpu.l2cache.ReadReq.avgMissLatency::switch_cpus.mmu.dtb_walker 122804.930140                       # average ReadReq miss latency ((Tick/Count))
system.cpu.l2cache.ReadReq.avgMissLatency::switch_cpus.mmu.itb_walker 106040.734344                       # average ReadReq miss latency ((Tick/Count))
system.cpu.l2cache.ReadReq.avgMissLatency::total 120872.355299                       # average ReadReq miss latency ((Tick/Count))
system.cpu.l2cache.ReadReq.mshrHits::switch_cpus.mmu.dtb_walker           18                       # number of ReadReq MSHR hits (Count)
system.cpu.l2cache.ReadReq.mshrHits::switch_cpus.mmu.itb_walker           47                       # number of ReadReq MSHR hits (Count)
system.cpu.l2cache.ReadReq.mshrHits::total           65                       # number of ReadReq MSHR hits (Count)
system.cpu.l2cache.ReadReq.mshrMisses::switch_cpus.mmu.dtb_walker       332090                       # number of ReadReq MSHR misses (Count)
system.cpu.l2cache.ReadReq.mshrMisses::switch_cpus.mmu.itb_walker        43227                       # number of ReadReq MSHR misses (Count)
system.cpu.l2cache.ReadReq.mshrMisses::total       375317                       # number of ReadReq MSHR misses (Count)
system.cpu.l2cache.ReadReq.mshrUncacheable::switch_cpus.data       231999                       # number of ReadReq MSHR uncacheable (Count)
system.cpu.l2cache.ReadReq.mshrUncacheable::total       231999                       # number of ReadReq MSHR uncacheable (Count)
system.cpu.l2cache.ReadReq.mshrMissLatency::switch_cpus.mmu.dtb_walker  37461999246                       # number of ReadReq MSHR miss ticks (Tick)
system.cpu.l2cache.ReadReq.mshrMissLatency::switch_cpus.mmu.itb_walker   4153010265                       # number of ReadReq MSHR miss ticks (Tick)
system.cpu.l2cache.ReadReq.mshrMissLatency::total  41615009511                       # number of ReadReq MSHR miss ticks (Tick)
system.cpu.l2cache.ReadReq.mshrUncacheableLatency::switch_cpus.data  11935531000                       # number of ReadReq MSHR uncacheable ticks (Tick)
system.cpu.l2cache.ReadReq.mshrUncacheableLatency::total  11935531000                       # number of ReadReq MSHR uncacheable ticks (Tick)
system.cpu.l2cache.ReadReq.mshrMissRate::switch_cpus.mmu.dtb_walker     0.224260                       # mshr miss rate for ReadReq accesses (Ratio)
system.cpu.l2cache.ReadReq.mshrMissRate::switch_cpus.mmu.itb_walker     0.488684                       # mshr miss rate for ReadReq accesses (Ratio)
system.cpu.l2cache.ReadReq.mshrMissRate::total     0.239164                       # mshr miss rate for ReadReq accesses (Ratio)
system.cpu.l2cache.ReadReq.avgMshrMissLatency::switch_cpus.mmu.dtb_walker 112806.766979                       # average ReadReq mshr miss latency ((Tick/Count))
system.cpu.l2cache.ReadReq.avgMshrMissLatency::switch_cpus.mmu.itb_walker 96074.450344                       # average ReadReq mshr miss latency ((Tick/Count))
system.cpu.l2cache.ReadReq.avgMshrMissLatency::total 110879.628450                       # average ReadReq mshr miss latency ((Tick/Count))
system.cpu.l2cache.ReadReq.avgMshrUncacheableLatency::switch_cpus.data 51446.476062                       # average ReadReq mshr uncacheable latency ((Tick/Count))
system.cpu.l2cache.ReadReq.avgMshrUncacheableLatency::total 51446.476062                       # average ReadReq mshr uncacheable latency ((Tick/Count))
system.cpu.l2cache.ReadSharedReq.hits::switch_cpus.data      7514520                       # number of ReadSharedReq hits (Count)
system.cpu.l2cache.ReadSharedReq.hits::total      7514520                       # number of ReadSharedReq hits (Count)
system.cpu.l2cache.ReadSharedReq.misses::switch_cpus.data     80005022                       # number of ReadSharedReq misses (Count)
system.cpu.l2cache.ReadSharedReq.misses::total     80005022                       # number of ReadSharedReq misses (Count)
system.cpu.l2cache.ReadSharedReq.missLatency::switch_cpus.data 10595917516500                       # number of ReadSharedReq miss ticks (Tick)
system.cpu.l2cache.ReadSharedReq.missLatency::total 10595917516500                       # number of ReadSharedReq miss ticks (Tick)
system.cpu.l2cache.ReadSharedReq.accesses::switch_cpus.data     87519542                       # number of ReadSharedReq accesses(hits+misses) (Count)
system.cpu.l2cache.ReadSharedReq.accesses::total     87519542                       # number of ReadSharedReq accesses(hits+misses) (Count)
system.cpu.l2cache.ReadSharedReq.missRate::switch_cpus.data     0.914139                       # miss rate for ReadSharedReq accesses (Ratio)
system.cpu.l2cache.ReadSharedReq.missRate::total     0.914139                       # miss rate for ReadSharedReq accesses (Ratio)
system.cpu.l2cache.ReadSharedReq.avgMissLatency::switch_cpus.data 132440.654994                       # average ReadSharedReq miss latency ((Tick/Count))
system.cpu.l2cache.ReadSharedReq.avgMissLatency::total 132440.654994                       # average ReadSharedReq miss latency ((Tick/Count))
system.cpu.l2cache.ReadSharedReq.mshrHits::switch_cpus.data            1                       # number of ReadSharedReq MSHR hits (Count)
system.cpu.l2cache.ReadSharedReq.mshrHits::total            1                       # number of ReadSharedReq MSHR hits (Count)
system.cpu.l2cache.ReadSharedReq.mshrMisses::switch_cpus.data     80005021                       # number of ReadSharedReq MSHR misses (Count)
system.cpu.l2cache.ReadSharedReq.mshrMisses::total     80005021                       # number of ReadSharedReq MSHR misses (Count)
system.cpu.l2cache.ReadSharedReq.mshrMissLatency::switch_cpus.data 9795867232000                       # number of ReadSharedReq MSHR miss ticks (Tick)
system.cpu.l2cache.ReadSharedReq.mshrMissLatency::total 9795867232000                       # number of ReadSharedReq MSHR miss ticks (Tick)
system.cpu.l2cache.ReadSharedReq.mshrMissRate::switch_cpus.data     0.914139                       # mshr miss rate for ReadSharedReq accesses (Ratio)
system.cpu.l2cache.ReadSharedReq.mshrMissRate::total     0.914139                       # mshr miss rate for ReadSharedReq accesses (Ratio)
system.cpu.l2cache.ReadSharedReq.avgMshrMissLatency::switch_cpus.data 122440.655718                       # average ReadSharedReq mshr miss latency ((Tick/Count))
system.cpu.l2cache.ReadSharedReq.avgMshrMissLatency::total 122440.655718                       # average ReadSharedReq mshr miss latency ((Tick/Count))
system.cpu.l2cache.UpgradeReq.hits::switch_cpus.data       952906                       # number of UpgradeReq hits (Count)
system.cpu.l2cache.UpgradeReq.hits::total       952906                       # number of UpgradeReq hits (Count)
system.cpu.l2cache.UpgradeReq.misses::switch_cpus.data         1924                       # number of UpgradeReq misses (Count)
system.cpu.l2cache.UpgradeReq.misses::total         1924                       # number of UpgradeReq misses (Count)
system.cpu.l2cache.UpgradeReq.missLatency::switch_cpus.data      4542000                       # number of UpgradeReq miss ticks (Tick)
system.cpu.l2cache.UpgradeReq.missLatency::total      4542000                       # number of UpgradeReq miss ticks (Tick)
system.cpu.l2cache.UpgradeReq.accesses::switch_cpus.data       954830                       # number of UpgradeReq accesses(hits+misses) (Count)
system.cpu.l2cache.UpgradeReq.accesses::total       954830                       # number of UpgradeReq accesses(hits+misses) (Count)
system.cpu.l2cache.UpgradeReq.missRate::switch_cpus.data     0.002015                       # miss rate for UpgradeReq accesses (Ratio)
system.cpu.l2cache.UpgradeReq.missRate::total     0.002015                       # miss rate for UpgradeReq accesses (Ratio)
system.cpu.l2cache.UpgradeReq.avgMissLatency::switch_cpus.data  2360.706861                       # average UpgradeReq miss latency ((Tick/Count))
system.cpu.l2cache.UpgradeReq.avgMissLatency::total  2360.706861                       # average UpgradeReq miss latency ((Tick/Count))
system.cpu.l2cache.UpgradeReq.mshrMisses::switch_cpus.data         1924                       # number of UpgradeReq MSHR misses (Count)
[...]
system.switch_cpus.mmu.itb_walker.pageSizes::4KiB        69123     98.69%     98.69% # Table walker page sizes translated (Count)
system.switch_cpus.mmu.itb_walker.pageSizes::2MiB          920      1.31%    100.00% # Table walker page sizes translated (Count)
system.switch_cpus.mmu.itb_walker.pageSizes::total        70043                       # Table walker page sizes translated (Count)
system.switch_cpus.mmu.itb_walker.requestOrigin_Requested::Data            0                       # Table walker requests started/completed, data/inst (Count)
system.switch_cpus.mmu.itb_walker.requestOrigin_Requested::Inst        88891                       # Table walker requests started/completed, data/inst (Count)
system.switch_cpus.mmu.itb_walker.requestOrigin_Requested::total        88891                       # Table walker requests started/completed, data/inst (Count)
system.switch_cpus.mmu.itb_walker.requestOrigin_Completed::Data            0                       # Table walker requests started/completed, data/inst (Count)
system.switch_cpus.mmu.itb_walker.requestOrigin_Completed::Inst        70043                       # Table walker requests started/completed, data/inst (Count)
system.switch_cpus.mmu.itb_walker.requestOrigin_Completed::total        70043                       # Table walker requests started/completed, data/inst (Count)
system.switch_cpus.mmu.itb_walker.requestOrigin::total       158934                       # Table walker requests started/completed, data/inst (Count)
system.switch_cpus.mmu.itb_walker.power_state.pwrStateResidencyTicks::UNDEFINED 16892983413000                       # Cumulative time (in ticks) in various power states (Tick)
system.switch_cpus.mmu.l2_shared.partialHits      4196469                       # partial translation hits (Count)
system.switch_cpus.mmu.l2_shared.instHits       688988                       # Inst hits (Count)
system.switch_cpus.mmu.l2_shared.instMisses        14809                       # Inst misses (Count)
system.switch_cpus.mmu.l2_shared.readHits      5177506                       # Read hits (Count)
system.switch_cpus.mmu.l2_shared.readMisses       369068                       # Read misses (Count)
system.switch_cpus.mmu.l2_shared.writeHits      1643846                       # Write hits (Count)
system.switch_cpus.mmu.l2_shared.writeMisses       325261                       # Write misses (Count)
system.switch_cpus.mmu.l2_shared.inserts       999824                       # Number of times an entry is inserted into the TLB (Count)
system.switch_cpus.mmu.l2_shared.flushTlb            2                       # Number of times complete TLB was flushed (Count)
system.switch_cpus.mmu.l2_shared.flushTlbMva            0                       # Number of times TLB was flushed by MVA (Count)
system.switch_cpus.mmu.l2_shared.flushTlbMvaAsid          975                       # Number of times TLB was flushed by MVA & ASID (Count)
system.switch_cpus.mmu.l2_shared.flushTlbAsid           19                       # Number of times TLB was flushed by ASID (Count)
system.switch_cpus.mmu.l2_shared.flushedEntries        10539                       # Number of entries that have been flushed from TLB (Count)
system.switch_cpus.mmu.l2_shared.readAccesses      5546574                       # Read accesses (Count)
system.switch_cpus.mmu.l2_shared.writeAccesses      1969107                       # Write accesses (Count)
system.switch_cpus.mmu.l2_shared.instAccesses       703797                       # Inst accesses (Count)
system.switch_cpus.mmu.l2_shared.hits         7510340                       # Total TLB (inst and data) hits (Count)
system.switch_cpus.mmu.l2_shared.misses        709138                       # Total TLB (inst and data) misses (Count)
system.switch_cpus.mmu.l2_shared.accesses      8219478                       # Total TLB (inst and data) accesses (Count)
system.switch_cpus.mmu.stage2_dtb.readHits            0                       # Read hits (Count)
system.switch_cpus.mmu.stage2_dtb.readMisses            0                       # Read misses (Count)
system.switch_cpus.mmu.stage2_dtb.writeHits            0                       # Write hits (Count)
system.switch_cpus.mmu.stage2_dtb.writeMisses            0                       # Write misses (Count)
system.switch_cpus.mmu.stage2_dtb.inserts            0                       # Number of times an entry is inserted into the TLB (Count)
system.switch_cpus.mmu.stage2_dtb.flushTlb            2                       # Number of times complete TLB was flushed (Count)
system.switch_cpus.mmu.stage2_dtb.flushTlbMva            0                       # Number of times TLB was flushed by MVA (Count)
system.switch_cpus.mmu.stage2_dtb.flushTlbMvaAsid            0                       # Number of times TLB was flushed by MVA & ASID (Count)
system.switch_cpus.mmu.stage2_dtb.flushTlbAsid            0                       # Number of times TLB was flushed by ASID (Count)
system.switch_cpus.mmu.stage2_dtb.flushedEntries            0                       # Number of entries that have been flushed from TLB (Count)
system.switch_cpus.mmu.stage2_dtb.readAccesses            0                       # Read accesses (Count)
system.switch_cpus.mmu.stage2_dtb.writeAccesses            0                       # Write accesses (Count)
system.switch_cpus.mmu.stage2_dtb.hits              0                       # Total TLB (inst and data) hits (Count)
system.switch_cpus.mmu.stage2_dtb.misses            0                       # Total TLB (inst and data) misses (Count)
system.switch_cpus.mmu.stage2_dtb.accesses            0                       # Total TLB (inst and data) accesses (Count)
system.switch_cpus.mmu.stage2_dtb_walker.walks            0                       # Table walker walks requested (Count)
system.switch_cpus.mmu.stage2_dtb_walker.requestOrigin_Requested::Data            0                       # Table walker requests started/completed, data/inst (Count)
system.switch_cpus.mmu.stage2_dtb_walker.requestOrigin_Requested::Inst            0                       # Table walker requests started/completed, data/inst (Count)
system.switch_cpus.mmu.stage2_dtb_walker.requestOrigin_Requested::total            0                       # Table walker requests started/completed, data/inst (Count)
system.switch_cpus.mmu.stage2_dtb_walker.requestOrigin_Completed::Data            0                       # Table walker requests started/completed, data/inst (Count)
system.switch_cpus.mmu.stage2_dtb_walker.requestOrigin_Completed::Inst            0                       # Table walker requests started/completed, data/inst (Count)
system.switch_cpus.mmu.stage2_dtb_walker.requestOrigin_Completed::total            0                       # Table walker requests started/completed, data/inst (Count)
system.switch_cpus.mmu.stage2_dtb_walker.requestOrigin::total            0                       # Table walker requests started/completed, data/inst (Count)
system.switch_cpus.mmu.stage2_dtb_walker.power_state.pwrStateResidencyTicks::UNDEFINED 16892983413000                       # Cumulative time (in ticks) in various power states (Tick)
system.switch_cpus.mmu.stage2_itb.instHits            0                       # Inst hits (Count)
system.switch_cpus.mmu.stage2_itb.instMisses            0                       # Inst misses (Count)
system.switch_cpus.mmu.stage2_itb.inserts            0                       # Number of times an entry is inserted into the TLB (Count)
system.switch_cpus.mmu.stage2_itb.flushTlb            2                       # Number of times complete TLB was flushed (Count)
system.switch_cpus.mmu.stage2_itb.flushTlbMva            0                       # Number of times TLB was flushed by MVA (Count)
system.switch_cpus.mmu.stage2_itb.flushTlbMvaAsid            0                       # Number of times TLB was flushed by MVA & ASID (Count)
system.switch_cpus.mmu.stage2_itb.flushTlbAsid            0                       # Number of times TLB was flushed by ASID (Count)
system.switch_cpus.mmu.stage2_itb.flushedEntries            0                       # Number of entries that have been flushed from TLB (Count)
system.switch_cpus.mmu.stage2_itb.instAccesses            0                       # Inst accesses (Count)
system.switch_cpus.mmu.stage2_itb.hits              0                       # Total TLB (inst and data) hits (Count)
system.switch_cpus.mmu.stage2_itb.misses            0                       # Total TLB (inst and data) misses (Count)
system.switch_cpus.mmu.stage2_itb.accesses            0                       # Total TLB (inst and data) accesses (Count)
system.switch_cpus.mmu.stage2_itb_walker.walks            0                       # Table walker walks requested (Count)
system.switch_cpus.mmu.stage2_itb_walker.requestOrigin_Requested::Data            0                       # Table walker requests started/completed, data/inst (Count)
system.switch_cpus.mmu.stage2_itb_walker.requestOrigin_Requested::Inst            0                       # Table walker requests started/completed, data/inst (Count)
system.switch_cpus.mmu.stage2_itb_walker.requestOrigin_Requested::total            0                       # Table walker requests started/completed, data/inst (Count)
system.switch_cpus.mmu.stage2_itb_walker.requestOrigin_Completed::Data            0                       # Table walker requests started/completed, data/inst (Count)
system.switch_cpus.mmu.stage2_itb_walker.requestOrigin_Completed::Inst            0                       # Table walker requests started/completed, data/inst (Count)
system.switch_cpus.mmu.stage2_itb_walker.requestOrigin_Completed::total            0                       # Table walker requests started/completed, data/inst (Count)
system.switch_cpus.mmu.stage2_itb_walker.requestOrigin::total            0                       # Table walker requests started/completed, data/inst (Count)
system.switch_cpus.mmu.stage2_itb_walker.power_state.pwrStateResidencyTicks::UNDEFINED 16892983413000                       # Cumulative time (in ticks) in various power states (Tick)
system.switch_cpus.power_state.numTransitions           23                       # Number of power state transitions (Count)
system.switch_cpus.power_state.ticksClkGated::samples           11                       # Distribution of time spent in the clock gated state (Tick)
system.switch_cpus.power_state.ticksClkGated::mean 26370832601.818180                       # Distribution of time spent in the clock gated state (Tick)
system.switch_cpus.power_state.ticksClkGated::stdev 16200566791.738522                       # Distribution of time spent in the clock gated state (Tick)
system.switch_cpus.power_state.ticksClkGated::1000-5e+10           11    100.00%    100.00% # Distribution of time spent in the clock gated state (Tick)
system.switch_cpus.power_state.ticksClkGated::min_value    204967308                       # Distribution of time spent in the clock gated state (Tick)
system.switch_cpus.power_state.ticksClkGated::max_value  39851191516                       # Distribution of time spent in the clock gated state (Tick)
system.switch_cpus.power_state.ticksClkGated::total           11                       # Distribution of time spent in the clock gated state (Tick)
system.switch_cpus.power_state.pwrStateResidencyTicks::ON 7447064273630                       # Cumulative time (in ticks) in various power states (Tick)
system.switch_cpus.power_state.pwrStateResidencyTicks::CLK_GATED 290079158620                       # Cumulative time (in ticks) in various power states (Tick)
system.switch_cpus.power_state.pwrStateResidencyTicks::OFF 9155839980750                       # Cumulative time (in ticks) in various power states (Tick)
system.switch_cpus.rename.squashCycles      103043927                       # Number of cycles rename is squashing (Cycle)
system.switch_cpus.rename.idleCycles       2235813861                       # Number of cycles rename is idle (Cycle)
system.switch_cpus.rename.blockCycles      5079278320                       # Number of cycles rename is blocking (Cycle)
system.switch_cpus.rename.serializeStallCycles   1362724696                       # count of cycles rename stalled for serializing inst (Cycle)
system.switch_cpus.rename.runCycles        3448441210                       # Number of cycles rename is running (Cycle)
system.switch_cpus.rename.unblockCycles    3649945695                       # Number of cycles rename is unblocking (Cycle)
system.switch_cpus.rename.renamedInsts    15723276471                       # Number of instructions processed by rename (Count)
system.switch_cpus.rename.ROBFullEvents        659205                       # Number of times rename has blocked due to ROB full (Count)
system.switch_cpus.rename.IQFullEvents      242859360                       # Number of times rename has blocked due to IQ full (Count)
system.switch_cpus.rename.LQFullEvents       11865229                       # Number of times rename has blocked due to LQ full (Count)
system.switch_cpus.rename.SQFullEvents     3540119934                       # Number of times rename has blocked due to SQ full (Count)
system.switch_cpus.rename.renamedOperands  16537097207                       # Number of destination operands rename has renamed (Count)
system.switch_cpus.rename.lookups         25618979584                       # Number of register rename lookups that rename has made (Count)
system.switch_cpus.rename.intLookups      17033146687                       # Number of integer rename lookups (Count)
system.switch_cpus.rename.vecLookups         57244129                       # Number of vector rename lookups (Count)
system.switch_cpus.rename.committedMaps   14741104624                       # Number of HB maps that are committed (Count)
system.switch_cpus.rename.undoneMaps       1795992583                       # Number of HB maps that are undone due to squashing (Count)
system.switch_cpus.rename.serializing        34417002                       # count of serializing insts renamed (Count)
system.switch_cpus.rename.tempSerializing      8543827                       # count of temporary serializing insts renamed (Count)
system.switch_cpus.rename.skidInsts        1602446043                       # count of insts added to the skid buffer (Count)
system.switch_cpus.rob.reads              30129577380                       # The number of ROB reads (Count)
system.switch_cpus.rob.writes             30697268187                       # The number of ROB writes (Count)
system.switch_cpus.thread_0.numInsts      11453985416                       # Number of Instructions committed (Count)
system.switch_cpus.thread_0.numOps        13932583963                       # Number of Ops committed (Count)
system.switch_cpus.thread_0.numMemRefs              0                       # Number of Memory References (Count)
system.tollcbus.transDist::ReadReq             335589                       # Transaction distribution (Count)
system.tollcbus.transDist::ReadResp          87805187                       # Transaction distribution (Count)
system.tollcbus.transDist::WriteReq             41352                       # Transaction distribution (Count)
system.tollcbus.transDist::WriteResp            41352                       # Transaction distribution (Count)
system.tollcbus.transDist::WritebackDirty    238017618                       # Transaction distribution (Count)
system.tollcbus.transDist::CleanEvict       167754929                       # Transaction distribution (Count)
system.tollcbus.transDist::UpgradeReq            1924                       # Transaction distribution (Count)
system.tollcbus.transDist::UpgradeResp           1924                       # Transaction distribution (Count)
system.tollcbus.transDist::ReadExReq          5615497                       # Transaction distribution (Count)
system.tollcbus.transDist::ReadExResp         5615497                       # Transaction distribution (Count)
system.tollcbus.transDist::ReadSharedReq     87469598                       # Transaction distribution (Count)
system.tollcbus.transDist::InvalidateReq    114839903                       # Transaction distribution (Count)
system.tollcbus.transDist::InvalidateResp    114839903                       # Transaction distribution (Count)
system.tollcbus.pktCount_system.cpu.l2cache.mem_side_port::system.llc.cpu_side_port    624528748                       # Packet count per connected requestor and responder (Count)
system.tollcbus.pktSize_system.cpu.l2cache.mem_side_port::system.llc.cpu_side_port  13860269670                       # Cumulative packet size per connected requestor and responder (Byte)
system.tollcbus.snoops                      197851525                       # Total snoops (Count)
system.tollcbus.snoopTraffic               7331719744                       # Total snoop traffic (Byte)
system.tollcbus.snoopFanout::samples        406029533                       # Request fanout histogram (Count)
system.tollcbus.snoopFanout::mean            0.006905                       # Request fanout histogram (Count)
system.tollcbus.snoopFanout::stdev           0.082806                       # Request fanout histogram (Count)
system.tollcbus.snoopFanout::underflows             0      0.00%      0.00% # Request fanout histogram (Count)
system.tollcbus.snoopFanout::0              403226100     99.31%     99.31% # Request fanout histogram (Count)
system.tollcbus.snoopFanout::1                2803433      0.69%    100.00% # Request fanout histogram (Count)
system.tollcbus.snoopFanout::overflows              0      0.00%    100.00% # Request fanout histogram (Count)
system.tollcbus.snoopFanout::min_value              0                       # Request fanout histogram (Count)
system.tollcbus.snoopFanout::max_value              1                       # Request fanout histogram (Count)
system.tollcbus.snoopFanout::total          406029533                       # Request fanout histogram (Count)
system.tollcbus.power_state.pwrStateResidencyTicks::UNDEFINED 16892983413000                       # Cumulative time (in ticks) in various power states (Tick)
system.tollcbus.reqLayer0.occupancy      331518946066                       # Layer occupancy (ticks) (Tick)
system.tollcbus.reqLayer0.utilization             0.0                       # Layer utilization (Ratio)
system.tollcbus.respLayer0.occupancy     197290089500                       # Layer occupancy (ticks) (Tick)
system.tollcbus.respLayer0.utilization            0.0                       # Layer utilization (Ratio)
system.tollcbus.snoop_filter.totRequests    415848045                       # Total number of requests made to the snoop filter. (Count)
system.tollcbus.snoop_filter.hitSingleRequests    207923046                       # Number of requests hitting in the snoop filter with a single holder of the requested data. (Count)
system.tollcbus.snoop_filter.hitMultiRequests            0                       # Number of requests hitting in the snoop filter with multiple (>1) holders of the requested data. (Count)
system.tollcbus.snoop_filter.totSnoops        2803433                       # Total number of snoops made to the snoop filter. (Count)
system.tollcbus.snoop_filter.hitSingleSnoops      2803433                       # Number of snoops hitting in the snoop filter with a single holder of the requested data. (Count)
system.tollcbus.snoop_filter.hitMultiSnoops            0                       # Number of snoops hitting in the snoop filter with multiple (>1) holders of the requested data. (Count)
system.voltage_domain.voltage                       1                       # Voltage in Volts (Volt)
system.workload.inst.arm                            0                       # number of arm instructions executed (Count)
system.workload.inst.quiesce                       11                       # number of quiesce instructions executed (Count)

---------- End Simulation Statistics   ----------
