
---------- Begin Simulation Statistics ----------
simSeconds                                  10.605135                       # Number of seconds simulated (Second)
simTicks                                 10605134573000                       # Number of ticks simulated (Tick)
finalTick                                10605134573000                       # Number of ticks from beginning of simulation (restored from checkpoints and never reset) (Tick)
simFreq                                  1000000000000                       # The number of ticks per simulated second ((Tick/Second))
hostSeconds                                  39831.20                       # Real time elapsed on the host (Second)
hostTickRate                                266251955                       # The number of ticks simulated per host second (ticks/s) ((Tick/Second))
hostMemory                                   18054256                       # Number of bytes of host memory used (Byte)
simInsts                                  15835908619                       # Number of instructions simulated (Count)
simOps                                    16555179544                       # Number of ops (including micro ops) simulated (Count)
hostInstRate                                   397575                       # Simulator instruction rate (inst/s) ((Count/Second))
hostOpRate                                     415633                       # Simulator op (including micro ops) rate (op/s) ((Count/Second))
system.bridge.power_state.pwrStateResidencyTicks::UNDEFINED 10605134573000                       # Cumulative time (in ticks) in various power states (Tick)
system.clk_domain.clock                          1000                       # Clock period in ticks (Tick)
system.cpu.numCycles                       7470933093                       # Number of cpu cycles simulated (Cycle)
system.cpu.numWorkItemsStarted                      0                       # Number of work items this cpu started (Count)
system.cpu.numWorkItemsCompleted                    0                       # Number of work items this cpu completed (Count)
system.cpu.committedInsts                 12673691583                       # Number of instructions committed (Count)
system.cpu.numVMExits                          203564                       # total number of KVM exits (Count)
system.cpu.numVMHalfEntries                         0                       # number of KVM entries to finalize pending operations (Count)
system.cpu.numExitSignal                         7522                       # exits due to signal delivery (Count)
system.cpu.numMMIO                             196042                       # number of VM exits due to memory mapped IO (Count)
system.cpu.numCoalescedMMIO                         0                       # number of coalesced memory mapped IO requests (Count)
system.cpu.numIO                                    0                       # number of VM exits due to legacy IO (Count)
system.cpu.numHalt                                  0                       # number of VM exits due to wait for interrupt instructions (Count)
system.cpu.numInterrupts                            0                       # number of interrupts delivered (Count)
system.cpu.numHypercalls                            0                       # number of hypercalls (Count)
system.cpu.dcache.demandHits::switch_cpus.data    670912368                       # number of demand (read+write) hits (Count)
system.cpu.dcache.demandHits::total         670912368                       # number of demand (read+write) hits (Count)
system.cpu.dcache.overallHits::switch_cpus.data    670919660                       # number of overall hits (Count)
system.cpu.dcache.overallHits::total        670919660                       # number of overall hits (Count)
system.cpu.dcache.demandMisses::switch_cpus.data    867882663                       # number of demand (read+write) misses (Count)
system.cpu.dcache.demandMisses::total       867882663                       # number of demand (read+write) misses (Count)
system.cpu.dcache.overallMisses::switch_cpus.data    867887427                       # number of overall misses (Count)
system.cpu.dcache.overallMisses::total      867887427                       # number of overall misses (Count)
system.cpu.dcache.demandMissLatency::switch_cpus.data 81692789823947                       # number of demand (read+write) miss ticks (Tick)
system.cpu.dcache.demandMissLatency::total 81692789823947                       # number of demand (read+write) miss ticks (Tick)
system.cpu.dcache.overallMissLatency::switch_cpus.data 81692789823947                       # number of overall miss ticks (Tick)
system.cpu.dcache.overallMissLatency::total 81692789823947                       # number of overall miss ticks (Tick)
system.cpu.dcache.demandAccesses::switch_cpus.data   1538795031                       # number of demand (read+write) accesses (Count)
system.cpu.dcache.demandAccesses::total    1538795031                       # number of demand (read+write) accesses (Count)
system.cpu.dcache.overallAccesses::switch_cpus.data   1538807087                       # number of overall (read+write) accesses (Count)
system.cpu.dcache.overallAccesses::total   1538807087                       # number of overall (read+write) accesses (Count)
system.cpu.dcache.demandMissRate::switch_cpus.data     0.564001                       # miss rate for demand accesses (Ratio)
system.cpu.dcache.demandMissRate::total      0.564001                       # miss rate for demand accesses (Ratio)
system.cpu.dcache.overallMissRate::switch_cpus.data     0.564000                       # miss rate for overall accesses (Ratio)
system.cpu.dcache.overallMissRate::total     0.564000                       # miss rate for overall accesses (Ratio)
system.cpu.dcache.demandAvgMissLatency::switch_cpus.data 94128.841728                       # average overall miss latency in ticks ((Tick/Count))
system.cpu.dcache.demandAvgMissLatency::total 94128.841728                       # average overall miss latency in ticks ((Tick/Count))
system.cpu.dcache.overallAvgMissLatency::switch_cpus.data 94128.325037                       # average overall miss latency ((Tick/Count))
system.cpu.dcache.overallAvgMissLatency::total 94128.325037                       # average overall miss latency ((Tick/Count))
system.cpu.dcache.blockedCycles::no_mshrs   1589645653                       # number of cycles access was blocked (Cycle)
system.cpu.dcache.blockedCycles::no_targets          961                       # number of cycles access was blocked (Cycle)
system.cpu.dcache.blockedCauses::no_mshrs     27673519                       # number of times access was blocked (Count)
system.cpu.dcache.blockedCauses::no_targets            8                       # number of times access was blocked (Count)
system.cpu.dcache.avgBlocked::no_mshrs      57.442845                       # average number of cycles each access was blocked ((Cycle/Count))
system.cpu.dcache.avgBlocked::no_targets   120.125000                       # average number of cycles each access was blocked ((Cycle/Count))
system.cpu.dcache.writebacks::writebacks     33161329                       # number of writebacks (Count)
system.cpu.dcache.writebacks::total          33161329                       # number of writebacks (Count)
system.cpu.dcache.demandMshrHits::switch_cpus.data    732376217                       # number of demand (read+write) MSHR hits (Count)
system.cpu.dcache.demandMshrHits::total     732376217                       # number of demand (read+write) MSHR hits (Count)
system.cpu.dcache.overallMshrHits::switch_cpus.data    732376217                       # number of overall MSHR hits (Count)
system.cpu.dcache.overallMshrHits::total    732376217                       # number of overall MSHR hits (Count)
system.cpu.dcache.demandMshrMisses::switch_cpus.data    135506446                       # number of demand (read+write) MSHR misses (Count)
system.cpu.dcache.demandMshrMisses::total    135506446                       # number of demand (read+write) MSHR misses (Count)
system.cpu.dcache.overallMshrMisses::switch_cpus.data    135510660                       # number of overall MSHR misses (Count)
system.cpu.dcache.overallMshrMisses::total    135510660                       # number of overall MSHR misses (Count)
system.cpu.dcache.overallMshrUncacheable::switch_cpus.data        53227                       # number of overall MSHR uncacheable misses (Count)
system.cpu.dcache.overallMshrUncacheable::total        53227                       # number of overall MSHR uncacheable misses (Count)
system.cpu.dcache.demandMshrMissLatency::switch_cpus.data 14701082417047                       # number of demand (read+write) MSHR miss ticks (Tick)
system.cpu.dcache.demandMshrMissLatency::total 14701082417047                       # number of demand (read+write) MSHR miss ticks (Tick)
system.cpu.dcache.overallMshrMissLatency::switch_cpus.data 14701202599547                       # number of overall MSHR miss ticks (Tick)
system.cpu.dcache.overallMshrMissLatency::total 14701202599547                       # number of overall MSHR miss ticks (Tick)
system.cpu.dcache.overallMshrUncacheableLatency::switch_cpus.data   2930917500                       # number of overall MSHR uncacheable ticks (Tick)
system.cpu.dcache.overallMshrUncacheableLatency::total   2930917500                       # number of overall MSHR uncacheable ticks (Tick)
system.cpu.dcache.demandMshrMissRate::switch_cpus.data     0.088060                       # mshr miss ratio for demand accesses (Ratio)
system.cpu.dcache.demandMshrMissRate::total     0.088060                       # mshr miss ratio for demand accesses (Ratio)
system.cpu.dcache.overallMshrMissRate::switch_cpus.data     0.088062                       # mshr miss ratio for overall accesses (Ratio)
system.cpu.dcache.overallMshrMissRate::total     0.088062                       # mshr miss ratio for overall accesses (Ratio)
system.cpu.dcache.demandAvgMshrMissLatency::switch_cpus.data 108489.912111                       # average overall mshr miss latency ((Tick/Count))
system.cpu.dcache.demandAvgMshrMissLatency::total 108489.912111                       # average overall mshr miss latency ((Tick/Count))
system.cpu.dcache.overallAvgMshrMissLatency::switch_cpus.data 108487.425266                       # average overall mshr miss latency ((Tick/Count))
system.cpu.dcache.overallAvgMshrMissLatency::total 108487.425266                       # average overall mshr miss latency ((Tick/Count))
system.cpu.dcache.overallAvgMshrUncacheableLatency::switch_cpus.data 55064.487948                       # average overall mshr uncacheable latency ((Tick/Count))
system.cpu.dcache.overallAvgMshrUncacheableLatency::total 55064.487948                       # average overall mshr uncacheable latency ((Tick/Count))
system.cpu.dcache.replacements              135502417                       # number of replacements (Count)
system.cpu.dcache.LoadLockedReq.hits::switch_cpus.data          149                       # number of LoadLockedReq hits (Count)
system.cpu.dcache.LoadLockedReq.hits::total          149                       # number of LoadLockedReq hits (Count)
system.cpu.dcache.LoadLockedReq.misses::switch_cpus.data            5                       # number of LoadLockedReq misses (Count)
system.cpu.dcache.LoadLockedReq.misses::total            5                       # number of LoadLockedReq misses (Count)
system.cpu.dcache.LoadLockedReq.missLatency::switch_cpus.data       192000                       # number of LoadLockedReq miss ticks (Tick)
system.cpu.dcache.LoadLockedReq.missLatency::total       192000                       # number of LoadLockedReq miss ticks (Tick)
system.cpu.dcache.LoadLockedReq.accesses::switch_cpus.data          154                       # number of LoadLockedReq accesses(hits+misses) (Count)
system.cpu.dcache.LoadLockedReq.accesses::total          154                       # number of LoadLockedReq accesses(hits+misses) (Count)
system.cpu.dcache.LoadLockedReq.missRate::switch_cpus.data     0.032468                       # miss rate for LoadLockedReq accesses (Ratio)
system.cpu.dcache.LoadLockedReq.missRate::total     0.032468                       # miss rate for LoadLockedReq accesses (Ratio)
system.cpu.dcache.LoadLockedReq.avgMissLatency::switch_cpus.data        38400                       # average LoadLockedReq miss latency ((Tick/Count))
system.cpu.dcache.LoadLockedReq.avgMissLatency::total        38400                       # average LoadLockedReq miss latency ((Tick/Count))
system.cpu.dcache.LoadLockedReq.mshrHits::switch_cpus.data            1                       # number of LoadLockedReq MSHR hits (Count)
system.cpu.dcache.LoadLockedReq.mshrHits::total            1                       # number of LoadLockedReq MSHR hits (Count)
system.cpu.dcache.LoadLockedReq.mshrMisses::switch_cpus.data            4                       # number of LoadLockedReq MSHR misses (Count)
system.cpu.dcache.LoadLockedReq.mshrMisses::total            4                       # number of LoadLockedReq MSHR misses (Count)
system.cpu.dcache.LoadLockedReq.mshrMissLatency::switch_cpus.data       176500                       # number of LoadLockedReq MSHR miss ticks (Tick)
system.cpu.dcache.LoadLockedReq.mshrMissLatency::total       176500                       # number of LoadLockedReq MSHR miss ticks (Tick)
system.cpu.dcache.LoadLockedReq.mshrMissRate::switch_cpus.data     0.025974                       # mshr miss rate for LoadLockedReq accesses (Ratio)
system.cpu.dcache.LoadLockedReq.mshrMissRate::total     0.025974                       # mshr miss rate for LoadLockedReq accesses (Ratio)
system.cpu.dcache.LoadLockedReq.avgMshrMissLatency::switch_cpus.data        44125                       # average LoadLockedReq mshr miss latency ((Tick/Count))
system.cpu.dcache.LoadLockedReq.avgMshrMissLatency::total        44125                       # average LoadLockedReq mshr miss latency ((Tick/Count))
system.cpu.dcache.ReadReq.hits::switch_cpus.data    642570796                       # number of ReadReq hits (Count)
system.cpu.dcache.ReadReq.hits::total       642570796                       # number of ReadReq hits (Count)
system.cpu.dcache.ReadReq.misses::switch_cpus.data    608965819                       # number of ReadReq misses (Count)
system.cpu.dcache.ReadReq.misses::total     608965819                       # number of ReadReq misses (Count)
system.cpu.dcache.ReadReq.missLatency::switch_cpus.data 59642624080000                       # number of ReadReq miss ticks (Tick)
system.cpu.dcache.ReadReq.missLatency::total 59642624080000                       # number of ReadReq miss ticks (Tick)
system.cpu.dcache.ReadReq.accesses::switch_cpus.data   1251536615                       # number of ReadReq accesses(hits+misses) (Count)
system.cpu.dcache.ReadReq.accesses::total   1251536615                       # number of ReadReq accesses(hits+misses) (Count)
system.cpu.dcache.ReadReq.missRate::switch_cpus.data     0.486575                       # miss rate for ReadReq accesses (Ratio)
system.cpu.dcache.ReadReq.missRate::total     0.486575                       # miss rate for ReadReq accesses (Ratio)
system.cpu.dcache.ReadReq.avgMissLatency::switch_cpus.data 97940.840387                       # average ReadReq miss latency ((Tick/Count))
system.cpu.dcache.ReadReq.avgMissLatency::total 97940.840387                       # average ReadReq miss latency ((Tick/Count))
system.cpu.dcache.ReadReq.mshrHits::switch_cpus.data    506152274                       # number of ReadReq MSHR hits (Count)
system.cpu.dcache.ReadReq.mshrHits::total    506152274                       # number of ReadReq MSHR hits (Count)
system.cpu.dcache.ReadReq.mshrMisses::switch_cpus.data    102813545                       # number of ReadReq MSHR misses (Count)
system.cpu.dcache.ReadReq.mshrMisses::total    102813545                       # number of ReadReq MSHR misses (Count)
system.cpu.dcache.ReadReq.mshrUncacheable::switch_cpus.data        48012                       # number of ReadReq MSHR uncacheable (Count)
system.cpu.dcache.ReadReq.mshrUncacheable::total        48012                       # number of ReadReq MSHR uncacheable (Count)
system.cpu.dcache.ReadReq.mshrMissLatency::switch_cpus.data 11295384320500                       # number of ReadReq MSHR miss ticks (Tick)
system.cpu.dcache.ReadReq.mshrMissLatency::total 11295384320500                       # number of ReadReq MSHR miss ticks (Tick)
system.cpu.dcache.ReadReq.mshrUncacheableLatency::switch_cpus.data   2930917500                       # number of ReadReq MSHR uncacheable ticks (Tick)
system.cpu.dcache.ReadReq.mshrUncacheableLatency::total   2930917500                       # number of ReadReq MSHR uncacheable ticks (Tick)
system.cpu.dcache.ReadReq.mshrMissRate::switch_cpus.data     0.082150                       # mshr miss rate for ReadReq accesses (Ratio)
system.cpu.dcache.ReadReq.mshrMissRate::total     0.082150                       # mshr miss rate for ReadReq accesses (Ratio)
system.cpu.dcache.ReadReq.avgMshrMissLatency::switch_cpus.data 109862.803782                       # average ReadReq mshr miss latency ((Tick/Count))
system.cpu.dcache.ReadReq.avgMshrMissLatency::total 109862.803782                       # average ReadReq mshr miss latency ((Tick/Count))
system.cpu.dcache.ReadReq.avgMshrUncacheableLatency::switch_cpus.data 61045.519870                       # average ReadReq mshr uncacheable latency ((Tick/Count))
system.cpu.dcache.ReadReq.avgMshrUncacheableLatency::total 61045.519870                       # average ReadReq mshr uncacheable latency ((Tick/Count))
system.cpu.dcache.SoftPFReq.hits::switch_cpus.data         7292                       # number of SoftPFReq hits (Count)
system.cpu.dcache.SoftPFReq.hits::total          7292                       # number of SoftPFReq hits (Count)
system.cpu.dcache.SoftPFReq.misses::switch_cpus.data         4764                       # number of SoftPFReq misses (Count)
system.cpu.dcache.SoftPFReq.misses::total         4764                       # number of SoftPFReq misses (Count)
system.cpu.dcache.SoftPFReq.accesses::switch_cpus.data        12056                       # number of SoftPFReq accesses(hits+misses) (Count)
system.cpu.dcache.SoftPFReq.accesses::total        12056                       # number of SoftPFReq accesses(hits+misses) (Count)
system.cpu.dcache.SoftPFReq.missRate::switch_cpus.data     0.395156                       # miss rate for SoftPFReq accesses (Ratio)
system.cpu.dcache.SoftPFReq.missRate::total     0.395156                       # miss rate for SoftPFReq accesses (Ratio)
system.cpu.dcache.SoftPFReq.mshrMisses::switch_cpus.data         4214                       # number of SoftPFReq MSHR misses (Count)
system.cpu.dcache.SoftPFReq.mshrMisses::total         4214                       # number of SoftPFReq MSHR misses (Count)
system.cpu.dcache.SoftPFReq.mshrMissLatency::switch_cpus.data    120182500                       # number of SoftPFReq MSHR miss ticks (Tick)
system.cpu.dcache.SoftPFReq.mshrMissLatency::total    120182500                       # number of SoftPFReq MSHR miss ticks (Tick)
system.cpu.dcache.SoftPFReq.mshrMissRate::switch_cpus.data     0.349536                       # mshr miss rate for SoftPFReq accesses (Ratio)
system.cpu.dcache.SoftPFReq.mshrMissRate::total     0.349536                       # mshr miss rate for SoftPFReq accesses (Ratio)
system.cpu.dcache.SoftPFReq.avgMshrMissLatency::switch_cpus.data 28519.814903                       # average SoftPFReq mshr miss latency ((Tick/Count))
system.cpu.dcache.SoftPFReq.avgMshrMissLatency::total 28519.814903                       # average SoftPFReq mshr miss latency ((Tick/Count))
system.cpu.dcache.StoreCondReq.hits::switch_cpus.data          132                       # number of StoreCondReq hits (Count)
system.cpu.dcache.StoreCondReq.hits::total          132                       # number of StoreCondReq hits (Count)
system.cpu.dcache.StoreCondReq.accesses::switch_cpus.data          132                       # number of StoreCondReq accesses(hits+misses) (Count)
system.cpu.dcache.StoreCondReq.accesses::total          132                       # number of StoreCondReq accesses(hits+misses) (Count)
system.cpu.dcache.SwapReq.hits::switch_cpus.data       305999                       # number of SwapReq hits (Count)
system.cpu.dcache.SwapReq.hits::total          305999                       # number of SwapReq hits (Count)
system.cpu.dcache.SwapReq.misses::switch_cpus.data        32711                       # number of SwapReq misses (Count)
system.cpu.dcache.SwapReq.misses::total         32711                       # number of SwapReq misses (Count)
system.cpu.dcache.SwapReq.missLatency::switch_cpus.data   2897037000                       # number of SwapReq miss ticks (Tick)
system.cpu.dcache.SwapReq.missLatency::total   2897037000                       # number of SwapReq miss ticks (Tick)
system.cpu.dcache.SwapReq.accesses::switch_cpus.data       338710                       # number of SwapReq accesses(hits+misses) (Count)
system.cpu.dcache.SwapReq.accesses::total       338710                       # number of SwapReq accesses(hits+misses) (Count)
system.cpu.dcache.SwapReq.missRate::switch_cpus.data     0.096575                       # miss rate for SwapReq accesses (Ratio)
system.cpu.dcache.SwapReq.missRate::total     0.096575                       # miss rate for SwapReq accesses (Ratio)
system.cpu.dcache.SwapReq.avgMissLatency::switch_cpus.data 88564.611293                       # average SwapReq miss latency ((Tick/Count))
system.cpu.dcache.SwapReq.avgMissLatency::total 88564.611293                       # average SwapReq miss latency ((Tick/Count))
system.cpu.dcache.SwapReq.mshrHits::switch_cpus.data            3                       # number of SwapReq MSHR hits (Count)
system.cpu.dcache.SwapReq.mshrHits::total            3                       # number of SwapReq MSHR hits (Count)
system.cpu.dcache.SwapReq.mshrMisses::switch_cpus.data        32708                       # number of SwapReq MSHR misses (Count)
system.cpu.dcache.SwapReq.mshrMisses::total        32708                       # number of SwapReq MSHR misses (Count)
system.cpu.dcache.SwapReq.mshrMissLatency::switch_cpus.data   2864307000                       # number of SwapReq MSHR miss ticks (Tick)
system.cpu.dcache.SwapReq.mshrMissLatency::total   2864307000                       # number of SwapReq MSHR miss ticks (Tick)
system.cpu.dcache.SwapReq.mshrMissRate::switch_cpus.data     0.096566                       # mshr miss rate for SwapReq accesses (Ratio)
system.cpu.dcache.SwapReq.mshrMissRate::total     0.096566                       # mshr miss rate for SwapReq accesses (Ratio)
system.cpu.dcache.SwapReq.avgMshrMissLatency::switch_cpus.data 87572.061881                       # average SwapReq mshr miss latency ((Tick/Count))
system.cpu.dcache.SwapReq.avgMshrMissLatency::total 87572.061881                       # average SwapReq mshr miss latency ((Tick/Count))
system.cpu.dcache.WriteLineReq.hits::switch_cpus.data          188                       # number of WriteLineReq hits (Count)
system.cpu.dcache.WriteLineReq.hits::total          188                       # number of WriteLineReq hits (Count)
system.cpu.dcache.WriteLineReq.misses::switch_cpus.data         5143                       # number of WriteLineReq misses (Count)
system.cpu.dcache.WriteLineReq.misses::total         5143                       # number of WriteLineReq misses (Count)
system.cpu.dcache.WriteLineReq.missLatency::switch_cpus.data    228330820                       # number of WriteLineReq miss ticks (Tick)
system.cpu.dcache.WriteLineReq.missLatency::total    228330820                       # number of WriteLineReq miss ticks (Tick)
system.cpu.dcache.WriteLineReq.accesses::switch_cpus.data         5331                       # number of WriteLineReq accesses(hits+misses) (Count)
system.cpu.dcache.WriteLineReq.accesses::total         5331                       # number of WriteLineReq accesses(hits+misses) (Count)
system.cpu.dcache.WriteLineReq.missRate::switch_cpus.data     0.964735                       # miss rate for WriteLineReq accesses (Ratio)
system.cpu.dcache.WriteLineReq.missRate::total     0.964735                       # miss rate for WriteLineReq accesses (Ratio)
system.cpu.dcache.WriteLineReq.avgMissLatency::switch_cpus.data 44396.426210                       # average WriteLineReq miss latency ((Tick/Count))
system.cpu.dcache.WriteLineReq.avgMissLatency::total 44396.426210                       # average WriteLineReq miss latency ((Tick/Count))
system.cpu.dcache.WriteLineReq.mshrHits::switch_cpus.data            2                       # number of WriteLineReq MSHR hits (Count)
system.cpu.dcache.WriteLineReq.mshrHits::total            2                       # number of WriteLineReq MSHR hits (Count)
system.cpu.dcache.WriteLineReq.mshrMisses::switch_cpus.data         5141                       # number of WriteLineReq MSHR misses (Count)
system.cpu.dcache.WriteLineReq.mshrMisses::total         5141                       # number of WriteLineReq MSHR misses (Count)
system.cpu.dcache.WriteLineReq.mshrMissLatency::switch_cpus.data    223166320                       # number of WriteLineReq MSHR miss ticks (Tick)
system.cpu.dcache.WriteLineReq.mshrMissLatency::total    223166320                       # number of WriteLineReq MSHR miss ticks (Tick)
system.cpu.dcache.WriteLineReq.mshrMissRate::switch_cpus.data     0.964359                       # mshr miss rate for WriteLineReq accesses (Ratio)
system.cpu.dcache.WriteLineReq.mshrMissRate::total     0.964359                       # mshr miss rate for WriteLineReq accesses (Ratio)
system.cpu.dcache.WriteLineReq.avgMshrMissLatency::switch_cpus.data 43409.126629                       # average WriteLineReq mshr miss latency ((Tick/Count))
system.cpu.dcache.WriteLineReq.avgMshrMissLatency::total 43409.126629                       # average WriteLineReq mshr miss latency ((Tick/Count))
system.cpu.dcache.WriteReq.hits::switch_cpus.data     28341384                       # number of WriteReq hits (Count)
system.cpu.dcache.WriteReq.hits::total       28341384                       # number of WriteReq hits (Count)
system.cpu.dcache.WriteReq.misses::switch_cpus.data    258911701                       # number of WriteReq misses (Count)
system.cpu.dcache.WriteReq.misses::total    258911701                       # number of WriteReq misses (Count)
system.cpu.dcache.WriteReq.missLatency::switch_cpus.data 22049937413127                       # number of WriteReq miss ticks (Tick)
system.cpu.dcache.WriteReq.missLatency::total 22049937413127                       # number of WriteReq miss ticks (Tick)
system.cpu.dcache.WriteReq.accesses::switch_cpus.data    287253085                       # number of WriteReq accesses(hits+misses) (Count)
system.cpu.dcache.WriteReq.accesses::total    287253085                       # number of WriteReq accesses(hits+misses) (Count)
system.cpu.dcache.WriteReq.missRate::switch_cpus.data     0.901337                       # miss rate for WriteReq accesses (Ratio)
system.cpu.dcache.WriteReq.missRate::total     0.901337                       # miss rate for WriteReq accesses (Ratio)
system.cpu.dcache.WriteReq.avgMissLatency::switch_cpus.data 85163.927810                       # average WriteReq miss latency ((Tick/Count))
system.cpu.dcache.WriteReq.avgMissLatency::total 85163.927810                       # average WriteReq miss latency ((Tick/Count))
system.cpu.dcache.WriteReq.mshrHits::switch_cpus.data    226223941                       # number of WriteReq MSHR hits (Count)
system.cpu.dcache.WriteReq.mshrHits::total    226223941                       # number of WriteReq MSHR hits (Count)
system.cpu.dcache.WriteReq.mshrMisses::switch_cpus.data     32687760                       # number of WriteReq MSHR misses (Count)
system.cpu.dcache.WriteReq.mshrMisses::total     32687760                       # number of WriteReq MSHR misses (Count)
system.cpu.dcache.WriteReq.mshrUncacheable::switch_cpus.data         5215                       # number of WriteReq MSHR uncacheable (Count)
system.cpu.dcache.WriteReq.mshrUncacheable::total         5215                       # number of WriteReq MSHR uncacheable (Count)
system.cpu.dcache.WriteReq.mshrMissLatency::switch_cpus.data 3405474930227                       # number of WriteReq MSHR miss ticks (Tick)
system.cpu.dcache.WriteReq.mshrMissLatency::total 3405474930227                       # number of WriteReq MSHR miss ticks (Tick)
system.cpu.dcache.WriteReq.mshrMissRate::switch_cpus.data     0.113794                       # mshr miss rate for WriteReq accesses (Ratio)
system.cpu.dcache.WriteReq.mshrMissRate::total     0.113794                       # mshr miss rate for WriteReq accesses (Ratio)
system.cpu.dcache.WriteReq.avgMshrMissLatency::switch_cpus.data 104181.960778                       # average WriteReq mshr miss latency ((Tick/Count))
system.cpu.dcache.WriteReq.avgMshrMissLatency::total 104181.960778                       # average WriteReq mshr miss latency ((Tick/Count))
system.cpu.dcache.power_state.pwrStateResidencyTicks::UNDEFINED 10605134573000                       # Cumulative time (in ticks) in various power states (Tick)
system.cpu.dcache.tags.tagsInUse           485.868512                       # Average ticks per tags in use ((Tick/Count))
system.cpu.dcache.tags.totalRefs            806818642                       # Total number of references to valid blocks. (Count)
system.cpu.dcache.tags.sampledRefs          135503441                       # Sample count of references to valid blocks. (Count)
system.cpu.dcache.tags.avgRefs               5.954230                       # Average number of references to valid blocks. ((Count/Count))
system.cpu.dcache.tags.warmupTick        5569118224500                       # The tick when the warmup percentage was hit. (Tick)
system.cpu.dcache.tags.occupancies::switch_cpus.data   485.868512                       # Average occupied blocks per tick, per requestor ((Count/Tick))
system.cpu.dcache.tags.avgOccs::switch_cpus.data     0.474481                       # Average percentage of cache occupancy ((Ratio/Tick))
system.cpu.dcache.tags.avgOccs::total        0.474481                       # Average percentage of cache occupancy ((Ratio/Tick))
system.cpu.dcache.tags.tagAccesses         6292087773                       # Number of tag accesses (Count)
system.cpu.dcache.tags.dataAccesses        6292087773                       # Number of data accesses (Count)
system.cpu.dcache.tags.power_state.pwrStateResidencyTicks::UNDEFINED 10605134573000                       # Cumulative time (in ticks) in various power states (Tick)
system.cpu.icache.demandHits::switch_cpus.inst     41277684                       # number of demand (read+write) hits (Count)
system.cpu.icache.demandHits::total          41277684                       # number of demand (read+write) hits (Count)
system.cpu.icache.overallHits::switch_cpus.inst     41277684                       # number of overall hits (Count)
system.cpu.icache.overallHits::total         41277684                       # number of overall hits (Count)
system.cpu.icache.demandMisses::switch_cpus.inst      1313338                       # number of demand (read+write) misses (Count)
system.cpu.icache.demandMisses::total         1313338                       # number of demand (read+write) misses (Count)
system.cpu.icache.overallMisses::switch_cpus.inst      1313338                       # number of overall misses (Count)
system.cpu.icache.overallMisses::total        1313338                       # number of overall misses (Count)
system.cpu.icache.demandMissLatency::switch_cpus.inst 114055035950                       # number of demand (read+write) miss ticks (Tick)
system.cpu.icache.demandMissLatency::total 114055035950                       # number of demand (read+write) miss ticks (Tick)
system.cpu.icache.overallMissLatency::switch_cpus.inst 114055035950                       # number of overall miss ticks (Tick)
system.cpu.icache.overallMissLatency::total 114055035950                       # number of overall miss ticks (Tick)
system.cpu.icache.demandAccesses::switch_cpus.inst     42591022                       # number of demand (read+write) accesses (Count)
system.cpu.icache.demandAccesses::total      42591022                       # number of demand (read+write) accesses (Count)
system.cpu.icache.overallAccesses::switch_cpus.inst     42591022                       # number of overall (read+write) accesses (Count)
system.cpu.icache.overallAccesses::total     42591022                       # number of overall (read+write) accesses (Count)
system.cpu.icache.demandMissRate::switch_cpus.inst     0.030836                       # miss rate for demand accesses (Ratio)
system.cpu.icache.demandMissRate::total      0.030836                       # miss rate for demand accesses (Ratio)
system.cpu.icache.overallMissRate::switch_cpus.inst     0.030836                       # miss rate for overall accesses (Ratio)
system.cpu.icache.overallMissRate::total     0.030836                       # miss rate for overall accesses (Ratio)
system.cpu.icache.demandAvgMissLatency::switch_cpus.inst 86843.627421                       # average overall miss latency in ticks ((Tick/Count))
system.cpu.icache.demandAvgMissLatency::total 86843.627421                       # average overall miss latency in ticks ((Tick/Count))
system.cpu.icache.overallAvgMissLatency::switch_cpus.inst 86843.627421                       # average overall miss latency ((Tick/Count))
system.cpu.icache.overallAvgMissLatency::total 86843.627421                       # average overall miss latency ((Tick/Count))
system.cpu.icache.blockedCycles::no_mshrs        48593                       # number of cycles access was blocked (Cycle)
system.cpu.icache.blockedCycles::no_targets            0                       # number of cycles access was blocked (Cycle)
system.cpu.icache.blockedCauses::no_mshrs         1044                       # number of times access was blocked (Count)
system.cpu.icache.blockedCauses::no_targets            0                       # number of times access was blocked (Count)
system.cpu.icache.avgBlocked::no_mshrs      46.545019                       # average number of cycles each access was blocked ((Cycle/Count))
system.cpu.icache.avgBlocked::no_targets          nan                       # average number of cycles each access was blocked ((Cycle/Count))
system.cpu.icache.writebacks::writebacks      1154115                       # number of writebacks (Count)
system.cpu.icache.writebacks::total           1154115                       # number of writebacks (Count)
system.cpu.icache.demandMshrHits::switch_cpus.inst       158199                       # number of demand (read+write) MSHR hits (Count)
system.cpu.icache.demandMshrHits::total        158199                       # number of demand (read+write) MSHR hits (Count)
system.cpu.icache.overallMshrHits::switch_cpus.inst       158199                       # number of overall MSHR hits (Count)
system.cpu.icache.overallMshrHits::total       158199                       # number of overall MSHR hits (Count)
system.cpu.icache.demandMshrMisses::switch_cpus.inst      1155139                       # number of demand (read+write) MSHR misses (Count)
system.cpu.icache.demandMshrMisses::total      1155139                       # number of demand (read+write) MSHR misses (Count)
system.cpu.icache.overallMshrMisses::switch_cpus.inst      1155139                       # number of overall MSHR misses (Count)
system.cpu.icache.overallMshrMisses::total      1155139                       # number of overall MSHR misses (Count)
system.cpu.icache.demandMshrMissLatency::switch_cpus.inst 100263867963                       # number of demand (read+write) MSHR miss ticks (Tick)
system.cpu.icache.demandMshrMissLatency::total 100263867963                       # number of demand (read+write) MSHR miss ticks (Tick)
system.cpu.icache.overallMshrMissLatency::switch_cpus.inst 100263867963                       # number of overall MSHR miss ticks (Tick)
system.cpu.icache.overallMshrMissLatency::total 100263867963                       # number of overall MSHR miss ticks (Tick)
system.cpu.icache.demandMshrMissRate::switch_cpus.inst     0.027122                       # mshr miss ratio for demand accesses (Ratio)
system.cpu.icache.demandMshrMissRate::total     0.027122                       # mshr miss ratio for demand accesses (Ratio)
system.cpu.icache.overallMshrMissRate::switch_cpus.inst     0.027122                       # mshr miss ratio for overall accesses (Ratio)
system.cpu.icache.overallMshrMissRate::total     0.027122                       # mshr miss ratio for overall accesses (Ratio)
system.cpu.icache.demandAvgMshrMissLatency::switch_cpus.inst 86798.097859                       # average overall mshr miss latency ((Tick/Count))
system.cpu.icache.demandAvgMshrMissLatency::total 86798.097859                       # average overall mshr miss latency ((Tick/Count))
system.cpu.icache.overallAvgMshrMissLatency::switch_cpus.inst 86798.097859                       # average overall mshr miss latency ((Tick/Count))
system.cpu.icache.overallAvgMshrMissLatency::total 86798.097859                       # average overall mshr miss latency ((Tick/Count))
system.cpu.icache.replacements                1154115                       # number of replacements (Count)
system.cpu.icache.ReadReq.hits::switch_cpus.inst     41277684                       # number of ReadReq hits (Count)
system.cpu.icache.ReadReq.hits::total        41277684                       # number of ReadReq hits (Count)
system.cpu.icache.ReadReq.misses::switch_cpus.inst      1313338                       # number of ReadReq misses (Count)
system.cpu.icache.ReadReq.misses::total       1313338                       # number of ReadReq misses (Count)
system.cpu.icache.ReadReq.missLatency::switch_cpus.inst 114055035950                       # number of ReadReq miss ticks (Tick)
system.cpu.icache.ReadReq.missLatency::total 114055035950                       # number of ReadReq miss ticks (Tick)
system.cpu.icache.ReadReq.accesses::switch_cpus.inst     42591022                       # number of ReadReq accesses(hits+misses) (Count)
system.cpu.icache.ReadReq.accesses::total     42591022                       # number of ReadReq accesses(hits+misses) (Count)
system.cpu.icache.ReadReq.missRate::switch_cpus.inst     0.030836                       # miss rate for ReadReq accesses (Ratio)
system.cpu.icache.ReadReq.missRate::total     0.030836                       # miss rate for ReadReq accesses (Ratio)
system.cpu.icache.ReadReq.avgMissLatency::switch_cpus.inst 86843.627421                       # average ReadReq miss latency ((Tick/Count))
system.cpu.icache.ReadReq.avgMissLatency::total 86843.627421                       # average ReadReq miss latency ((Tick/Count))
system.cpu.icache.ReadReq.mshrHits::switch_cpus.inst       158199                       # number of ReadReq MSHR hits (Count)
system.cpu.icache.ReadReq.mshrHits::total       158199                       # number of ReadReq MSHR hits (Count)
system.cpu.icache.ReadReq.mshrMisses::switch_cpus.inst      1155139                       # number of ReadReq MSHR misses (Count)
system.cpu.icache.ReadReq.mshrMisses::total      1155139                       # number of ReadReq MSHR misses (Count)
system.cpu.icache.ReadReq.mshrMissLatency::switch_cpus.inst 100263867963                       # number of ReadReq MSHR miss ticks (Tick)
system.cpu.icache.ReadReq.mshrMissLatency::total 100263867963                       # number of ReadReq MSHR miss ticks (Tick)
system.cpu.icache.ReadReq.mshrMissRate::switch_cpus.inst     0.027122                       # mshr miss rate for ReadReq accesses (Ratio)
system.cpu.icache.ReadReq.mshrMissRate::total     0.027122                       # mshr miss rate for ReadReq accesses (Ratio)
system.cpu.icache.ReadReq.avgMshrMissLatency::switch_cpus.inst 86798.097859                       # average ReadReq mshr miss latency ((Tick/Count))
system.cpu.icache.ReadReq.avgMshrMissLatency::total 86798.097859                       # average ReadReq mshr miss latency ((Tick/Count))
system.cpu.icache.power_state.pwrStateResidencyTicks::UNDEFINED 10605134573000                       # Cumulative time (in ticks) in various power states (Tick)
system.cpu.icache.tags.tagsInUse           485.552650                       # Average ticks per tags in use ((Tick/Count))
system.cpu.icache.tags.totalRefs             42432823                       # Total number of references to valid blocks. (Count)
system.cpu.icache.tags.sampledRefs            1155139                       # Sample count of references to valid blocks. (Count)
system.cpu.icache.tags.avgRefs              36.733954                       # Average number of references to valid blocks. ((Count/Count))
system.cpu.icache.tags.warmupTick        5569117875500                       # The tick when the warmup percentage was hit. (Tick)
system.cpu.icache.tags.occupancies::switch_cpus.inst   485.552650                       # Average occupied blocks per tick, per requestor ((Count/Tick))
system.cpu.icache.tags.avgOccs::switch_cpus.inst     0.474173                       # Average percentage of cache occupancy ((Ratio/Tick))
system.cpu.icache.tags.avgOccs::total        0.474173                       # Average percentage of cache occupancy ((Ratio/Tick))
system.cpu.icache.tags.tagAccesses          171519227                       # Number of tag accesses (Count)
system.cpu.icache.tags.dataAccesses         171519227                       # Number of data accesses (Count)
system.cpu.icache.tags.power_state.pwrStateResidencyTicks::UNDEFINED 10605134573000                       # Cumulative time (in ticks) in various power states (Tick)
system.cpu.l2cache.demandHits::switch_cpus.mmu.dtb_walker      1523050                       # number of demand (read+write) hits (Count)
system.cpu.l2cache.demandHits::switch_cpus.mmu.itb_walker        21457                       # number of demand (read+write) hits (Count)
system.cpu.l2cache.demandHits::switch_cpus.inst       286311                       # number of demand (read+write) hits (Count)
system.cpu.l2cache.demandHits::switch_cpus.data       375242                       # number of demand (read+write) hits (Count)
system.cpu.l2cache.demandHits::total          2206060                       # number of demand (read+write) hits (Count)
system.cpu.l2cache.overallHits::switch_cpus.mmu.dtb_walker      1523050                       # number of overall hits (Count)
system.cpu.l2cache.overallHits::switch_cpus.mmu.itb_walker        21457                       # number of overall hits (Count)
system.cpu.l2cache.overallHits::switch_cpus.inst       286311                       # number of overall hits (Count)
system.cpu.l2cache.overallHits::switch_cpus.data       375242                       # number of overall hits (Count)
system.cpu.l2cache.overallHits::total         2206060                       # number of overall hits (Count)
system.cpu.l2cache.demandMisses::switch_cpus.mmu.dtb_walker       291633                       # number of demand (read+write) misses (Count)
system.cpu.l2cache.demandMisses::switch_cpus.mmu.itb_walker        47738                       # number of demand (read+write) misses (Count)
system.cpu.l2cache.demandMisses::switch_cpus.inst       868828                       # number of demand (read+write) misses (Count)
system.cpu.l2cache.demandMisses::switch_cpus.data    135016239                       # number of demand (read+write) misses (Count)
system.cpu.l2cache.demandMisses::total      136224438                       # number of demand (read+write) misses (Count)
system.cpu.l2cache.overallMisses::switch_cpus.mmu.dtb_walker       291633                       # number of overall misses (Count)
system.cpu.l2cache.overallMisses::switch_cpus.mmu.itb_walker        47738                       # number of overall misses (Count)
system.cpu.l2cache.overallMisses::switch_cpus.inst       868828                       # number of overall misses (Count)
system.cpu.l2cache.overallMisses::switch_cpus.data    135016239                       # number of overall misses (Count)
system.cpu.l2cache.overallMisses::total     136224438                       # number of overall misses (Count)
system.cpu.l2cache.demandMissLatency::switch_cpus.mmu.dtb_walker  34419771269                       # number of demand (read+write) miss ticks (Tick)
system.cpu.l2cache.demandMissLatency::switch_cpus.mmu.itb_walker   5261719742                       # number of demand (read+write) miss ticks (Tick)
system.cpu.l2cache.demandMissLatency::switch_cpus.inst  95432306500                       # number of demand (read+write) miss ticks (Tick)
system.cpu.l2cache.demandMissLatency::switch_cpus.data 14489805755500                       # number of demand (read+write) miss ticks (Tick)
system.cpu.l2cache.demandMissLatency::total 14624919553011                       # number of demand (read+write) miss ticks (Tick)
system.cpu.l2cache.overallMissLatency::switch_cpus.mmu.dtb_walker  34419771269                       # number of overall miss ticks (Tick)
system.cpu.l2cache.overallMissLatency::switch_cpus.mmu.itb_walker   5261719742                       # number of overall miss ticks (Tick)
system.cpu.l2cache.overallMissLatency::switch_cpus.inst  95432306500                       # number of overall miss ticks (Tick)
system.cpu.l2cache.overallMissLatency::switch_cpus.data 14489805755500                       # number of overall miss ticks (Tick)
system.cpu.l2cache.overallMissLatency::total 14624919553011                       # number of overall miss ticks (Tick)
system.cpu.l2cache.demandAccesses::switch_cpus.mmu.dtb_walker      1814683                       # number of demand (read+write) accesses (Count)
system.cpu.l2cache.demandAccesses::switch_cpus.mmu.itb_walker        69195                       # number of demand (read+write) accesses (Count)
system.cpu.l2cache.demandAccesses::switch_cpus.inst      1155139                       # number of demand (read+write) accesses (Count)
system.cpu.l2cache.demandAccesses::switch_cpus.data    135391481                       # number of demand (read+write) accesses (Count)
system.cpu.l2cache.demandAccesses::total    138430498                       # number of demand (read+write) accesses (Count)
system.cpu.l2cache.overallAccesses::switch_cpus.mmu.dtb_walker      1814683                       # number of overall (read+write) accesses (Count)
system.cpu.l2cache.overallAccesses::switch_cpus.mmu.itb_walker        69195                       # number of overall (read+write) accesses (Count)
system.cpu.l2cache.overallAccesses::switch_cpus.inst      1155139                       # number of overall (read+write) accesses (Count)
system.cpu.l2cache.overallAccesses::switch_cpus.data    135391481                       # number of overall (read+write) accesses (Count)
system.cpu.l2cache.overallAccesses::total    138430498                       # number of overall (read+write) accesses (Count)
system.cpu.l2cache.demandMissRate::switch_cpus.mmu.dtb_walker     0.160707                       # miss rate for demand accesses (Ratio)
system.cpu.l2cache.demandMissRate::switch_cpus.mmu.itb_walker     0.689905                       # miss rate for demand accesses (Ratio)
system.cpu.l2cache.demandMissRate::switch_cpus.inst     0.752142                       # miss rate for demand accesses (Ratio)
system.cpu.l2cache.demandMissRate::switch_cpus.data     0.997228                       # miss rate for demand accesses (Ratio)
system.cpu.l2cache.demandMissRate::total     0.984064                       # miss rate for demand accesses (Ratio)
system.cpu.l2cache.overallMissRate::switch_cpus.mmu.dtb_walker     0.160707                       # miss rate for overall accesses (Ratio)
system.cpu.l2cache.overallMissRate::switch_cpus.mmu.itb_walker     0.689905                       # miss rate for overall accesses (Ratio)
system.cpu.l2cache.overallMissRate::switch_cpus.inst     0.752142                       # miss rate for overall accesses (Ratio)
system.cpu.l2cache.overallMissRate::switch_cpus.data     0.997228                       # miss rate for overall accesses (Ratio)
system.cpu.l2cache.overallMissRate::total     0.984064                       # miss rate for overall accesses (Ratio)
system.cpu.l2cache.demandAvgMissLatency::switch_cpus.mmu.dtb_walker 118024.267723                       # average overall miss latency in ticks ((Tick/Count))
system.cpu.l2cache.demandAvgMissLatency::switch_cpus.mmu.itb_walker 110220.783066                       # average overall miss latency in ticks ((Tick/Count))
system.cpu.l2cache.demandAvgMissLatency::switch_cpus.inst 109840.275060                       # average overall miss latency in ticks ((Tick/Count))
system.cpu.l2cache.demandAvgMissLatency::switch_cpus.data 107318.985204                       # average overall miss latency in ticks ((Tick/Count))
system.cpu.l2cache.demandAvgMissLatency::total 107359.000835                       # average overall miss latency in ticks ((Tick/Count))
system.cpu.l2cache.overallAvgMissLatency::switch_cpus.mmu.dtb_walker 118024.267723                       # average overall miss latency ((Tick/Count))
system.cpu.l2cache.overallAvgMissLatency::switch_cpus.mmu.itb_walker 110220.783066                       # average overall miss latency ((Tick/Count))
system.cpu.l2cache.overallAvgMissLatency::switch_cpus.inst 109840.275060                       # average overall miss latency ((Tick/Count))
system.cpu.l2cache.overallAvgMissLatency::switch_cpus.data 107318.985204                       # average overall miss latency ((Tick/Count))
system.cpu.l2cache.overallAvgMissLatency::total 107359.000835                       # average overall miss latency ((Tick/Count))
system.cpu.l2cache.blockedCycles::no_mshrs            0                       # number of cycles access was blocked (Cycle)
system.cpu.l2cache.blockedCycles::no_targets            0                       # number of cycles access was blocked (Cycle)
system.cpu.l2cache.blockedCauses::no_mshrs            0                       # number of times access was blocked (Count)
system.cpu.l2cache.blockedCauses::no_targets            0                       # number of times access was blocked (Count)
system.cpu.l2cache.avgBlocked::no_mshrs           nan                       # average number of cycles each access was blocked ((Cycle/Count))
system.cpu.l2cache.avgBlocked::no_targets          nan                       # average number of cycles each access was blocked ((Cycle/Count))
system.cpu.l2cache.writebacks::writebacks     32913514                       # number of writebacks (Count)
system.cpu.l2cache.writebacks::total         32913514                       # number of writebacks (Count)
system.cpu.l2cache.demandMshrHits::switch_cpus.mmu.itb_walker           13                       # number of demand (read+write) MSHR hits (Count)
system.cpu.l2cache.demandMshrHits::total           13                       # number of demand (read+write) MSHR hits (Count)
system.cpu.l2cache.overallMshrHits::switch_cpus.mmu.itb_walker           13                       # number of overall MSHR hits (Count)
system.cpu.l2cache.overallMshrHits::total           13                       # number of overall MSHR hits (Count)
system.cpu.l2cache.demandMshrMisses::switch_cpus.mmu.dtb_walker       291633                       # number of demand (read+write) MSHR misses (Count)
system.cpu.l2cache.demandMshrMisses::switch_cpus.mmu.itb_walker        47725                       # number of demand (read+write) MSHR misses (Count)
system.cpu.l2cache.demandMshrMisses::switch_cpus.inst       868828                       # number of demand (read+write) MSHR misses (Count)
system.cpu.l2cache.demandMshrMisses::switch_cpus.data    135016239                       # number of demand (read+write) MSHR misses (Count)
system.cpu.l2cache.demandMshrMisses::total    136224425                       # number of demand (read+write) MSHR misses (Count)
system.cpu.l2cache.overallMshrMisses::switch_cpus.mmu.dtb_walker       291633                       # number of overall MSHR misses (Count)
system.cpu.l2cache.overallMshrMisses::switch_cpus.mmu.itb_walker        47725                       # number of overall MSHR misses (Count)
system.cpu.l2cache.overallMshrMisses::switch_cpus.inst       868828                       # number of overall MSHR misses (Count)
system.cpu.l2cache.overallMshrMisses::switch_cpus.data    135016239                       # number of overall MSHR misses (Count)
system.cpu.l2cache.overallMshrMisses::total    136224425                       # number of overall MSHR misses (Count)
system.cpu.l2cache.overallMshrUncacheable::switch_cpus.data        53227                       # number of overall MSHR uncacheable misses (Count)
system.cpu.l2cache.overallMshrUncacheable::total        53227                       # number of overall MSHR uncacheable misses (Count)
system.cpu.l2cache.demandMshrMissLatency::switch_cpus.mmu.dtb_walker  31503441269                       # number of demand (read+write) MSHR miss ticks (Tick)
system.cpu.l2cache.demandMshrMissLatency::switch_cpus.mmu.itb_walker   4783527753                       # number of demand (read+write) MSHR miss ticks (Tick)
system.cpu.l2cache.demandMshrMissLatency::switch_cpus.inst  86744026500                       # number of demand (read+write) MSHR miss ticks (Tick)
system.cpu.l2cache.demandMshrMissLatency::switch_cpus.data 13139643365500                       # number of demand (read+write) MSHR miss ticks (Tick)
system.cpu.l2cache.demandMshrMissLatency::total 13262674361022                       # number of demand (read+write) MSHR miss ticks (Tick)
system.cpu.l2cache.overallMshrMissLatency::switch_cpus.mmu.dtb_walker  31503441269                       # number of overall MSHR miss ticks (Tick)
system.cpu.l2cache.overallMshrMissLatency::switch_cpus.mmu.itb_walker   4783527753                       # number of overall MSHR miss ticks (Tick)
system.cpu.l2cache.overallMshrMissLatency::switch_cpus.inst  86744026500                       # number of overall MSHR miss ticks (Tick)
system.cpu.l2cache.overallMshrMissLatency::switch_cpus.data 13139643365500                       # number of overall MSHR miss ticks (Tick)
system.cpu.l2cache.overallMshrMissLatency::total 13262674361022                       # number of overall MSHR miss ticks (Tick)
system.cpu.l2cache.overallMshrUncacheableLatency::switch_cpus.data   2354701000                       # number of overall MSHR uncacheable ticks (Tick)
system.cpu.l2cache.overallMshrUncacheableLatency::total   2354701000                       # number of overall MSHR uncacheable ticks (Tick)
system.cpu.l2cache.demandMshrMissRate::switch_cpus.mmu.dtb_walker     0.160707                       # mshr miss ratio for demand accesses (Ratio)
system.cpu.l2cache.demandMshrMissRate::switch_cpus.mmu.itb_walker     0.689717                       # mshr miss ratio for demand accesses (Ratio)
system.cpu.l2cache.demandMshrMissRate::switch_cpus.inst     0.752142                       # mshr miss ratio for demand accesses (Ratio)
system.cpu.l2cache.demandMshrMissRate::switch_cpus.data     0.997228                       # mshr miss ratio for demand accesses (Ratio)
system.cpu.l2cache.demandMshrMissRate::total     0.984064                       # mshr miss ratio for demand accesses (Ratio)
system.cpu.l2cache.overallMshrMissRate::switch_cpus.mmu.dtb_walker     0.160707                       # mshr miss ratio for overall accesses (Ratio)
system.cpu.l2cache.overallMshrMissRate::switch_cpus.mmu.itb_walker     0.689717                       # mshr miss ratio for overall accesses (Ratio)
system.cpu.l2cache.overallMshrMissRate::switch_cpus.inst     0.752142                       # mshr miss ratio for overall accesses (Ratio)
system.cpu.l2cache.overallMshrMissRate::switch_cpus.data     0.997228                       # mshr miss ratio for overall accesses (Ratio)
system.cpu.l2cache.overallMshrMissRate::total     0.984064                       # mshr miss ratio for overall accesses (Ratio)
system.cpu.l2cache.demandAvgMshrMissLatency::switch_cpus.mmu.dtb_walker 108024.267723                       # average overall mshr miss latency ((Tick/Count))
system.cpu.l2cache.demandAvgMshrMissLatency::switch_cpus.mmu.itb_walker 100231.068685                       # average overall mshr miss latency ((Tick/Count))
system.cpu.l2cache.demandAvgMshrMissLatency::switch_cpus.inst 99840.275060                       # average overall mshr miss latency ((Tick/Count))
system.cpu.l2cache.demandAvgMshrMissLatency::switch_cpus.data 97318.985204                       # average overall mshr miss latency ((Tick/Count))
system.cpu.l2cache.demandAvgMshrMissLatency::total 97359.004166                       # average overall mshr miss latency ((Tick/Count))
system.cpu.l2cache.overallAvgMshrMissLatency::switch_cpus.mmu.dtb_walker 108024.267723                       # average overall mshr miss latency ((Tick/Count))
system.cpu.l2cache.overallAvgMshrMissLatency::switch_cpus.mmu.itb_walker 100231.068685                       # average overall mshr miss latency ((Tick/Count))
system.cpu.l2cache.overallAvgMshrMissLatency::switch_cpus.inst 99840.275060                       # average overall mshr miss latency ((Tick/Count))
system.cpu.l2cache.overallAvgMshrMissLatency::switch_cpus.data 97318.985204                       # average overall mshr miss latency ((Tick/Count))
system.cpu.l2cache.overallAvgMshrMissLatency::total 97359.004166                       # average overall mshr miss latency ((Tick/Count))
system.cpu.l2cache.overallAvgMshrUncacheableLatency::switch_cpus.data 44238.844947                       # average overall mshr uncacheable latency ((Tick/Count))
system.cpu.l2cache.overallAvgMshrUncacheableLatency::total 44238.844947                       # average overall mshr uncacheable latency ((Tick/Count))
system.cpu.l2cache.replacements             137490235                       # number of replacements (Count)
system.cpu.l2cache.CleanEvict.mshrMisses::writebacks          223                       # number of CleanEvict MSHR misses (Count)
system.cpu.l2cache.CleanEvict.mshrMisses::total          223                       # number of CleanEvict MSHR misses (Count)
system.cpu.l2cache.CleanEvict.mshrMissRate::writebacks          inf                       # mshr miss rate for CleanEvict accesses (Ratio)
system.cpu.l2cache.CleanEvict.mshrMissRate::total          inf                       # mshr miss rate for CleanEvict accesses (Ratio)
system.cpu.l2cache.InvalidateReq.hits::switch_cpus.data         3864                       # number of InvalidateReq hits (Count)
system.cpu.l2cache.InvalidateReq.hits::total         3864                       # number of InvalidateReq hits (Count)
system.cpu.l2cache.InvalidateReq.misses::switch_cpus.data       108111                       # number of InvalidateReq misses (Count)
system.cpu.l2cache.InvalidateReq.misses::total       108111                       # number of InvalidateReq misses (Count)
system.cpu.l2cache.InvalidateReq.accesses::switch_cpus.data       111975                       # number of InvalidateReq accesses(hits+misses) (Count)
system.cpu.l2cache.InvalidateReq.accesses::total       111975                       # number of InvalidateReq accesses(hits+misses) (Count)
system.cpu.l2cache.InvalidateReq.missRate::switch_cpus.data     0.965492                       # miss rate for InvalidateReq accesses (Ratio)
system.cpu.l2cache.InvalidateReq.missRate::total     0.965492                       # miss rate for InvalidateReq accesses (Ratio)
system.cpu.l2cache.InvalidateReq.mshrMisses::switch_cpus.data       108111                       # number of InvalidateReq MSHR misses (Count)
system.cpu.l2cache.InvalidateReq.mshrMisses::total       108111                       # number of InvalidateReq MSHR misses (Count)
system.cpu.l2cache.InvalidateReq.mshrMissLatency::switch_cpus.data   4742333500                       # number of InvalidateReq MSHR miss ticks (Tick)
system.cpu.l2cache.InvalidateReq.mshrMissLatency::total   4742333500                       # number of InvalidateReq MSHR miss ticks (Tick)
system.cpu.l2cache.InvalidateReq.mshrMissRate::switch_cpus.data     0.965492                       # mshr miss rate for InvalidateReq accesses (Ratio)
system.cpu.l2cache.InvalidateReq.mshrMissRate::total     0.965492                       # mshr miss rate for InvalidateReq accesses (Ratio)
system.cpu.l2cache.InvalidateReq.avgMshrMissLatency::switch_cpus.data 43865.411475                       # average InvalidateReq mshr miss latency ((Tick/Count))
system.cpu.l2cache.InvalidateReq.avgMshrMissLatency::total 43865.411475                       # average InvalidateReq mshr miss latency ((Tick/Count))
system.cpu.l2cache.ReadCleanReq.hits::switch_cpus.inst       286311                       # number of ReadCleanReq hits (Count)
system.cpu.l2cache.ReadCleanReq.hits::total       286311                       # number of ReadCleanReq hits (Count)
system.cpu.l2cache.ReadCleanReq.misses::switch_cpus.inst       868828                       # number of ReadCleanReq misses (Count)
system.cpu.l2cache.ReadCleanReq.misses::total       868828                       # number of ReadCleanReq misses (Count)
system.cpu.l2cache.ReadCleanReq.missLatency::switch_cpus.inst  95432306500                       # number of ReadCleanReq miss ticks (Tick)
system.cpu.l2cache.ReadCleanReq.missLatency::total  95432306500                       # number of ReadCleanReq miss ticks (Tick)
system.cpu.l2cache.ReadCleanReq.accesses::switch_cpus.inst      1155139                       # number of ReadCleanReq accesses(hits+misses) (Count)
system.cpu.l2cache.ReadCleanReq.accesses::total      1155139                       # number of ReadCleanReq accesses(hits+misses) (Count)
system.cpu.l2cache.ReadCleanReq.missRate::switch_cpus.inst     0.752142                       # miss rate for ReadCleanReq accesses (Ratio)
system.cpu.l2cache.ReadCleanReq.missRate::total     0.752142                       # miss rate for ReadCleanReq accesses (Ratio)
system.cpu.l2cache.ReadCleanReq.avgMissLatency::switch_cpus.inst 109840.275060                       # average ReadCleanReq miss latency ((Tick/Count))
system.cpu.l2cache.ReadCleanReq.avgMissLatency::total 109840.275060                       # average ReadCleanReq miss latency ((Tick/Count))
system.cpu.l2cache.ReadCleanReq.mshrMisses::switch_cpus.inst       868828                       # number of ReadCleanReq MSHR misses (Count)
system.cpu.l2cache.ReadCleanReq.mshrMisses::total       868828                       # number of ReadCleanReq MSHR misses (Count)
system.cpu.l2cache.ReadCleanReq.mshrMissLatency::switch_cpus.inst  86744026500                       # number of ReadCleanReq MSHR miss ticks (Tick)
system.cpu.l2cache.ReadCleanReq.mshrMissLatency::total  86744026500                       # number of ReadCleanReq MSHR miss ticks (Tick)
system.cpu.l2cache.ReadCleanReq.mshrMissRate::switch_cpus.inst     0.752142                       # mshr miss rate for ReadCleanReq accesses (Ratio)
system.cpu.l2cache.ReadCleanReq.mshrMissRate::total     0.752142                       # mshr miss rate for ReadCleanReq accesses (Ratio)
system.cpu.l2cache.ReadCleanReq.avgMshrMissLatency::switch_cpus.inst 99840.275060                       # average ReadCleanReq mshr miss latency ((Tick/Count))
system.cpu.l2cache.ReadCleanReq.avgMshrMissLatency::total 99840.275060                       # average ReadCleanReq mshr miss latency ((Tick/Count))
system.cpu.l2cache.ReadExReq.hits::switch_cpus.data       189563                       # number of ReadExReq hits (Count)
system.cpu.l2cache.ReadExReq.hits::total       189563                       # number of ReadExReq hits (Count)
system.cpu.l2cache.ReadExReq.misses::switch_cpus.data     32387090                       # number of ReadExReq misses (Count)
system.cpu.l2cache.ReadExReq.misses::total     32387090                       # number of ReadExReq misses (Count)
system.cpu.l2cache.ReadExReq.missLatency::switch_cpus.data 3350999559000                       # number of ReadExReq miss ticks (Tick)
system.cpu.l2cache.ReadExReq.missLatency::total 3350999559000                       # number of ReadExReq miss ticks (Tick)
system.cpu.l2cache.ReadExReq.accesses::switch_cpus.data     32576653                       # number of ReadExReq accesses(hits+misses) (Count)
system.cpu.l2cache.ReadExReq.accesses::total     32576653                       # number of ReadExReq accesses(hits+misses) (Count)
system.cpu.l2cache.ReadExReq.missRate::switch_cpus.data     0.994181                       # miss rate for ReadExReq accesses (Ratio)
system.cpu.l2cache.ReadExReq.missRate::total     0.994181                       # miss rate for ReadExReq accesses (Ratio)
system.cpu.l2cache.ReadExReq.avgMissLatency::switch_cpus.data 103467.139499                       # average ReadExReq miss latency ((Tick/Count))
system.cpu.l2cache.ReadExReq.avgMissLatency::total 103467.139499                       # average ReadExReq miss latency ((Tick/Count))
system.cpu.l2cache.ReadExReq.mshrMisses::switch_cpus.data     32387090                       # number of ReadExReq MSHR misses (Count)
system.cpu.l2cache.ReadExReq.mshrMisses::total     32387090                       # number of ReadExReq MSHR misses (Count)
system.cpu.l2cache.ReadExReq.mshrMissLatency::switch_cpus.data 3027128659000                       # number of ReadExReq MSHR miss ticks (Tick)
system.cpu.l2cache.ReadExReq.mshrMissLatency::total 3027128659000                       # number of ReadExReq MSHR miss ticks (Tick)
system.cpu.l2cache.ReadExReq.mshrMissRate::switch_cpus.data     0.994181                       # mshr miss rate for ReadExReq accesses (Ratio)
system.cpu.l2cache.ReadExReq.mshrMissRate::total     0.994181                       # mshr miss rate for ReadExReq accesses (Ratio)
system.cpu.l2cache.ReadExReq.avgMshrMissLatency::switch_cpus.data 93467.139499                       # average ReadExReq mshr miss latency ((Tick/Count))
system.cpu.l2cache.ReadExReq.avgMshrMissLatency::total 93467.139499                       # average ReadExReq mshr miss latency ((Tick/Count))
system.cpu.l2cache.ReadReq.hits::switch_cpus.mmu.dtb_walker      1523050                       # number of ReadReq hits (Count)
system.cpu.l2cache.ReadReq.hits::switch_cpus.mmu.itb_walker        21457                       # number of ReadReq hits (Count)
system.cpu.l2cache.ReadReq.hits::total        1544507                       # number of ReadReq hits (Count)
system.cpu.l2cache.ReadReq.misses::switch_cpus.mmu.dtb_walker       291633                       # number of ReadReq misses (Count)
system.cpu.l2cache.ReadReq.misses::switch_cpus.mmu.itb_walker        47738                       # number of ReadReq misses (Count)
system.cpu.l2cache.ReadReq.misses::total       339371                       # number of ReadReq misses (Count)
system.cpu.l2cache.ReadReq.missLatency::switch_cpus.mmu.dtb_walker  34419771269                       # number of ReadReq miss ticks (Tick)
system.cpu.l2cache.ReadReq.missLatency::switch_cpus.mmu.itb_walker   5261719742                       # number of ReadReq miss ticks (Tick)
system.cpu.l2cache.ReadReq.missLatency::total  39681491011                       # number of ReadReq miss ticks (Tick)
system.cpu.l2cache.ReadReq.accesses::switch_cpus.mmu.dtb_walker      1814683                       # number of ReadReq accesses(hits+misses) (Count)
system.cpu.l2cache.ReadReq.accesses::switch_cpus.mmu.itb_walker        69195                       # number of ReadReq accesses(hits+misses) (Count)
system.cpu.l2cache.ReadReq.accesses::total      1883878                       # number of ReadReq accesses(hits+misses) (Count)
system.cpu.l2cache.ReadReq.missRate::switch_cpus.mmu.dtb_walker     0.160707                       # miss rate for ReadReq accesses (Ratio)
system.cpu.l2cache.ReadReq.missRate::switch_cpus.mmu.itb_walker     0.689905                       # miss rate for ReadReq accesses (Ratio)
system.cpu.l2cache.ReadReq.missRate::total     0.180145                       # miss rate for ReadReq accesses (Ratio)
system.cpu.l2cache.ReadReq.avgMissLatency::switch_cpus.mmu.dtb_walker 118024.267723                       # average ReadReq miss latency ((Tick/Count))
system.cpu.l2cache.ReadReq.avgMissLatency::switch_cpus.mmu.itb_walker 110220.783066                       # average ReadReq miss latency ((Tick/Count))
system.cpu.l2cache.ReadReq.avgMissLatency::total 116926.581856                       # average ReadReq miss latency ((Tick/Count))
system.cpu.l2cache.ReadReq.mshrHits::switch_cpus.mmu.itb_walker           13                       # number of ReadReq MSHR hits (Count)
system.cpu.l2cache.ReadReq.mshrHits::total           13                       # number of ReadReq MSHR hits (Count)
system.cpu.l2cache.ReadReq.mshrMisses::switch_cpus.mmu.dtb_walker       291633                       # number of ReadReq MSHR misses (Count)
system.cpu.l2cache.ReadReq.mshrMisses::switch_cpus.mmu.itb_walker        47725                       # number of ReadReq MSHR misses (Count)
system.cpu.l2cache.ReadReq.mshrMisses::total       339358                       # number of ReadReq MSHR misses (Count)
system.cpu.l2cache.ReadReq.mshrUncacheable::switch_cpus.data        48012                       # number of ReadReq MSHR uncacheable (Count)
system.cpu.l2cache.ReadReq.mshrUncacheable::total        48012                       # number of ReadReq MSHR uncacheable (Count)
system.cpu.l2cache.ReadReq.mshrMissLatency::switch_cpus.mmu.dtb_walker  31503441269                       # number of ReadReq MSHR miss ticks (Tick)
system.cpu.l2cache.ReadReq.mshrMissLatency::switch_cpus.mmu.itb_walker   4783527753                       # number of ReadReq MSHR miss ticks (Tick)
system.cpu.l2cache.ReadReq.mshrMissLatency::total  36286969022                       # number of ReadReq MSHR miss ticks (Tick)
system.cpu.l2cache.ReadReq.mshrUncacheableLatency::switch_cpus.data   2354701000                       # number of ReadReq MSHR uncacheable ticks (Tick)
system.cpu.l2cache.ReadReq.mshrUncacheableLatency::total   2354701000                       # number of ReadReq MSHR uncacheable ticks (Tick)
system.cpu.l2cache.ReadReq.mshrMissRate::switch_cpus.mmu.dtb_walker     0.160707                       # mshr miss rate for ReadReq accesses (Ratio)
system.cpu.l2cache.ReadReq.mshrMissRate::switch_cpus.mmu.itb_walker     0.689717                       # mshr miss rate for ReadReq accesses (Ratio)
system.cpu.l2cache.ReadReq.mshrMissRate::total     0.180138                       # mshr miss rate for ReadReq accesses (Ratio)
system.cpu.l2cache.ReadReq.avgMshrMissLatency::switch_cpus.mmu.dtb_walker 108024.267723                       # average ReadReq mshr miss latency ((Tick/Count))
system.cpu.l2cache.ReadReq.avgMshrMissLatency::switch_cpus.mmu.itb_walker 100231.068685                       # average ReadReq mshr miss latency ((Tick/Count))
system.cpu.l2cache.ReadReq.avgMshrMissLatency::total 106928.285239                       # average ReadReq mshr miss latency ((Tick/Count))
system.cpu.l2cache.ReadReq.avgMshrUncacheableLatency::switch_cpus.data 49044.009831                       # average ReadReq mshr uncacheable latency ((Tick/Count))
system.cpu.l2cache.ReadReq.avgMshrUncacheableLatency::total 49044.009831                       # average ReadReq mshr uncacheable latency ((Tick/Count))
system.cpu.l2cache.ReadSharedReq.hits::switch_cpus.data       185679                       # number of ReadSharedReq hits (Count)
system.cpu.l2cache.ReadSharedReq.hits::total       185679                       # number of ReadSharedReq hits (Count)
system.cpu.l2cache.ReadSharedReq.misses::switch_cpus.data    102629149                       # number of ReadSharedReq misses (Count)
system.cpu.l2cache.ReadSharedReq.misses::total    102629149                       # number of ReadSharedReq misses (Count)
system.cpu.l2cache.ReadSharedReq.missLatency::switch_cpus.data 11138806196500                       # number of ReadSharedReq miss ticks (Tick)
system.cpu.l2cache.ReadSharedReq.missLatency::total 11138806196500                       # number of ReadSharedReq miss ticks (Tick)
system.cpu.l2cache.ReadSharedReq.accesses::switch_cpus.data    102814828                       # number of ReadSharedReq accesses(hits+misses) (Count)
system.cpu.l2cache.ReadSharedReq.accesses::total    102814828                       # number of ReadSharedReq accesses(hits+misses) (Count)
system.cpu.l2cache.ReadSharedReq.missRate::switch_cpus.data     0.998194                       # miss rate for ReadSharedReq accesses (Ratio)
system.cpu.l2cache.ReadSharedReq.missRate::total     0.998194                       # miss rate for ReadSharedReq accesses (Ratio)
system.cpu.l2cache.ReadSharedReq.avgMissLatency::switch_cpus.data 108534.527520                       # average ReadSharedReq miss latency ((Tick/Count))
system.cpu.l2cache.ReadSharedReq.avgMissLatency::total 108534.527520                       # average ReadSharedReq miss latency ((Tick/Count))
system.cpu.l2cache.ReadSharedReq.mshrMisses::switch_cpus.data    102629149                       # number of ReadSharedReq MSHR misses (Count)
system.cpu.l2cache.ReadSharedReq.mshrMisses::total    102629149                       # number of ReadSharedReq MSHR misses (Count)
system.cpu.l2cache.ReadSharedReq.mshrMissLatency::switch_cpus.data 10112514706500                       # number of ReadSharedReq MSHR miss ticks (Tick)
system.cpu.l2cache.ReadSharedReq.mshrMissLatency::total 10112514706500                       # number of ReadSharedReq MSHR miss ticks (Tick)
system.cpu.l2cache.ReadSharedReq.mshrMissRate::switch_cpus.data     0.998194                       # mshr miss rate for ReadSharedReq accesses (Ratio)
system.cpu.l2cache.ReadSharedReq.mshrMissRate::total     0.998194                       # mshr miss rate for ReadSharedReq accesses (Ratio)
system.cpu.l2cache.ReadSharedReq.avgMshrMissLatency::switch_cpus.data 98534.527520                       # average ReadSharedReq mshr miss latency ((Tick/Count))
system.cpu.l2cache.ReadSharedReq.avgMshrMissLatency::total 98534.527520                       # average ReadSharedReq mshr miss latency ((Tick/Count))
system.cpu.l2cache.UpgradeReq.hits::switch_cpus.data        40133                       # number of UpgradeReq hits (Count)
system.cpu.l2cache.UpgradeReq.hits::total        40133                       # number of UpgradeReq hits (Count)
system.cpu.l2cache.UpgradeReq.misses::switch_cpus.data           11                       # number of UpgradeReq misses (Count)
system.cpu.l2cache.UpgradeReq.misses::total           11                       # number of UpgradeReq misses (Count)
system.cpu.l2cache.UpgradeReq.missLatency::switch_cpus.data       391000                       # number of UpgradeReq miss ticks (Tick)
system.cpu.l2cache.UpgradeReq.missLatency::total       391000                       # number of UpgradeReq miss ticks (Tick)
system.cpu.l2cache.UpgradeReq.accesses::switch_cpus.data        40144                       # number of UpgradeReq accesses(hits+misses) (Count)
system.cpu.l2cache.UpgradeReq.accesses::total        40144                       # number of UpgradeReq accesses(hits+misses) (Count)
system.cpu.l2cache.UpgradeReq.missRate::switch_cpus.data     0.000274                       # miss rate for UpgradeReq accesses (Ratio)
system.cpu.l2cache.UpgradeReq.missRate::total     0.000274                       # miss rate for UpgradeReq accesses (Ratio)
system.cpu.l2cache.UpgradeReq.avgMissLatency::switch_cpus.data 35545.454545                       # average UpgradeReq miss latency ((Tick/Count))
system.cpu.l2cache.UpgradeReq.avgMissLatency::total 35545.454545                       # average UpgradeReq miss latency ((Tick/Count))
system.cpu.l2cache.UpgradeReq.mshrMisses::switch_cpus.data           11                       # number of UpgradeReq MSHR misses (Count)
system.cpu.l2cache.UpgradeReq.mshrMisses::total           11                       # number of UpgradeReq MSHR misses (Count)
system.cpu.l2cache.UpgradeReq.mshrMissLatency::switch_cpus.data       369500                       # number of UpgradeReq MSHR miss ticks (Tick)
system.cpu.l2cache.UpgradeReq.mshrMissLatency::total       369500                       # number of UpgradeReq MSHR miss ticks (Tick)
system.cpu.l2cache.UpgradeReq.mshrMissRate::switch_cpus.data     0.000274                       # mshr miss rate for UpgradeReq accesses (Ratio)
system.cpu.l2cache.UpgradeReq.mshrMissRate::total     0.000274                       # mshr miss rate for UpgradeReq accesses (Ratio)
system.cpu.l2cache.UpgradeReq.avgMshrMissLatency::switch_cpus.data 33590.909091                       # average UpgradeReq mshr miss latency ((Tick/Count))
system.cpu.l2cache.UpgradeReq.avgMshrMissLatency::total 33590.909091                       # average UpgradeReq mshr miss latency ((Tick/Count))
system.cpu.l2cache.WriteReq.mshrUncacheable::switch_cpus.data         5215                       # number of WriteReq MSHR uncacheable (Count)
system.cpu.l2cache.WriteReq.mshrUncacheable::total         5215                       # number of WriteReq MSHR uncacheable (Count)
system.cpu.l2cache.WritebackClean.hits::writebacks      1154113                       # number of WritebackClean hits (Count)
system.cpu.l2cache.WritebackClean.hits::total      1154113                       # number of WritebackClean hits (Count)
system.cpu.l2cache.WritebackClean.accesses::writebacks      1154113                       # number of WritebackClean accesses(hits+misses) (Count)
system.cpu.l2cache.WritebackClean.accesses::total      1154113                       # number of WritebackClean accesses(hits+misses) (Count)
system.cpu.l2cache.WritebackDirty.hits::writebacks     33161329                       # number of WritebackDirty hits (Count)
system.cpu.l2cache.WritebackDirty.hits::total     33161329                       # number of WritebackDirty hits (Count)
system.cpu.l2cache.WritebackDirty.accesses::writebacks     33161329                       # number of WritebackDirty accesses(hits+misses) (Count)
system.cpu.l2cache.WritebackDirty.accesses::total     33161329                       # number of WritebackDirty accesses(hits+misses) (Count)
system.cpu.l2cache.power_state.pwrStateResidencyTicks::UNDEFINED 10605134573000                       # Cumulative time (in ticks) in various power states (Tick)
system.cpu.l2cache.tags.tagsInUse         3886.842691                       # Average ticks per tags in use ((Tick/Count))
system.cpu.l2cache.tags.totalRefs           275130791                       # Total number of references to valid blocks. (Count)
system.cpu.l2cache.tags.sampledRefs         137502280                       # Sample count of references to valid blocks. (Count)
system.cpu.l2cache.tags.avgRefs              2.000918                       # Average number of references to valid blocks. ((Count/Count))
system.cpu.l2cache.tags.warmupTick       5569117432000                       # The tick when the warmup percentage was hit. (Tick)
system.cpu.l2cache.tags.occupancies::writebacks    30.384438                       # Average occupied blocks per tick, per requestor ((Count/Tick))
system.cpu.l2cache.tags.occupancies::switch_cpus.mmu.dtb_walker     7.589712                       # Average occupied blocks per tick, per requestor ((Count/Tick))
[...]
system.switch_cpus.mmu.itb_walker.pendingWalks::total 876222949356                       # Table walker pending requests distribution (Tick)
system.switch_cpus.mmu.itb_walker.pageSizes::4KiB        48304     91.52%     91.52% # Table walker page sizes translated (Count)
system.switch_cpus.mmu.itb_walker.pageSizes::2MiB         4476      8.48%    100.00% # Table walker page sizes translated (Count)
system.switch_cpus.mmu.itb_walker.pageSizes::total        52780                       # Table walker page sizes translated (Count)
system.switch_cpus.mmu.itb_walker.requestOrigin_Requested::Data            0                       # Table walker requests started/completed, data/inst (Count)
system.switch_cpus.mmu.itb_walker.requestOrigin_Requested::Inst        59274                       # Table walker requests started/completed, data/inst (Count)
system.switch_cpus.mmu.itb_walker.requestOrigin_Requested::total        59274                       # Table walker requests started/completed, data/inst (Count)
system.switch_cpus.mmu.itb_walker.requestOrigin_Completed::Data            0                       # Table walker requests started/completed, data/inst (Count)
system.switch_cpus.mmu.itb_walker.requestOrigin_Completed::Inst        52780                       # Table walker requests started/completed, data/inst (Count)
system.switch_cpus.mmu.itb_walker.requestOrigin_Completed::total        52780                       # Table walker requests started/completed, data/inst (Count)
system.switch_cpus.mmu.itb_walker.requestOrigin::total       112054                       # Table walker requests started/completed, data/inst (Count)
system.switch_cpus.mmu.itb_walker.power_state.pwrStateResidencyTicks::UNDEFINED 10605134573000                       # Cumulative time (in ticks) in various power states (Tick)
system.switch_cpus.mmu.l2_shared.partialHits     16198522                       # partial translation hits (Count)
system.switch_cpus.mmu.l2_shared.instHits       173214                       # Inst hits (Count)
system.switch_cpus.mmu.l2_shared.instMisses         7990                       # Inst misses (Count)
system.switch_cpus.mmu.l2_shared.readHits      7898932                       # Read hits (Count)
system.switch_cpus.mmu.l2_shared.readMisses       220583                       # Read misses (Count)
system.switch_cpus.mmu.l2_shared.writeHits      8408214                       # Write hits (Count)
system.switch_cpus.mmu.l2_shared.writeMisses        15539                       # Write misses (Count)
system.switch_cpus.mmu.l2_shared.inserts      1758543                       # Number of times an entry is inserted into the TLB (Count)
system.switch_cpus.mmu.l2_shared.flushTlb            2                       # Number of times complete TLB was flushed (Count)
system.switch_cpus.mmu.l2_shared.flushTlbMva            0                       # Number of times TLB was flushed by MVA (Count)
system.switch_cpus.mmu.l2_shared.flushTlbMvaAsid          129                       # Number of times TLB was flushed by MVA & ASID (Count)
system.switch_cpus.mmu.l2_shared.flushTlbAsid            6                       # Number of times TLB was flushed by ASID (Count)
system.switch_cpus.mmu.l2_shared.flushedEntries         3124                       # Number of entries that have been flushed from TLB (Count)
system.switch_cpus.mmu.l2_shared.readAccesses      8119515                       # Read accesses (Count)
system.switch_cpus.mmu.l2_shared.writeAccesses      8423753                       # Write accesses (Count)
system.switch_cpus.mmu.l2_shared.instAccesses       181204                       # Inst accesses (Count)
system.switch_cpus.mmu.l2_shared.hits        16480360                       # Total TLB (inst and data) hits (Count)
system.switch_cpus.mmu.l2_shared.misses        244112                       # Total TLB (inst and data) misses (Count)
system.switch_cpus.mmu.l2_shared.accesses     16724472                       # Total TLB (inst and data) accesses (Count)
system.switch_cpus.mmu.stage2_dtb.readHits            0                       # Read hits (Count)
system.switch_cpus.mmu.stage2_dtb.readMisses            0                       # Read misses (Count)
system.switch_cpus.mmu.stage2_dtb.writeHits            0                       # Write hits (Count)
system.switch_cpus.mmu.stage2_dtb.writeMisses            0                       # Write misses (Count)
system.switch_cpus.mmu.stage2_dtb.inserts            0                       # Number of times an entry is inserted into the TLB (Count)
system.switch_cpus.mmu.stage2_dtb.flushTlb            2                       # Number of times complete TLB was flushed (Count)
system.switch_cpus.mmu.stage2_dtb.flushTlbMva            0                       # Number of times TLB was flushed by MVA (Count)
system.switch_cpus.mmu.stage2_dtb.flushTlbMvaAsid            0                       # Number of times TLB was flushed by MVA & ASID (Count)
system.switch_cpus.mmu.stage2_dtb.flushTlbAsid            0                       # Number of times TLB was flushed by ASID (Count)
system.switch_cpus.mmu.stage2_dtb.flushedEntries            0                       # Number of entries that have been flushed from TLB (Count)
system.switch_cpus.mmu.stage2_dtb.readAccesses            0                       # Read accesses (Count)
system.switch_cpus.mmu.stage2_dtb.writeAccesses            0                       # Write accesses (Count)
system.switch_cpus.mmu.stage2_dtb.hits              0                       # Total TLB (inst and data) hits (Count)
system.switch_cpus.mmu.stage2_dtb.misses            0                       # Total TLB (inst and data) misses (Count)
system.switch_cpus.mmu.stage2_dtb.accesses            0                       # Total TLB (inst and data) accesses (Count)
system.switch_cpus.mmu.stage2_dtb_walker.walks            0                       # Table walker walks requested (Count)
system.switch_cpus.mmu.stage2_dtb_walker.requestOrigin_Requested::Data            0                       # Table walker requests started/completed, data/inst (Count)
system.switch_cpus.mmu.stage2_dtb_walker.requestOrigin_Requested::Inst            0                       # Table walker requests started/completed, data/inst (Count)
system.switch_cpus.mmu.stage2_dtb_walker.requestOrigin_Requested::total            0                       # Table walker requests started/completed, data/inst (Count)
system.switch_cpus.mmu.stage2_dtb_walker.requestOrigin_Completed::Data            0                       # Table walker requests started/completed, data/inst (Count)
system.switch_cpus.mmu.stage2_dtb_walker.requestOrigin_Completed::Inst            0                       # Table walker requests started/completed, data/inst (Count)
system.switch_cpus.mmu.stage2_dtb_walker.requestOrigin_Completed::total            0                       # Table walker requests started/completed, data/inst (Count)
system.switch_cpus.mmu.stage2_dtb_walker.requestOrigin::total            0                       # Table walker requests started/completed, data/inst (Count)
system.switch_cpus.mmu.stage2_dtb_walker.power_state.pwrStateResidencyTicks::UNDEFINED 10605134573000                       # Cumulative time (in ticks) in various power states (Tick)
system.switch_cpus.mmu.stage2_itb.instHits            0                       # Inst hits (Count)
system.switch_cpus.mmu.stage2_itb.instMisses            0                       # Inst misses (Count)
system.switch_cpus.mmu.stage2_itb.inserts            0                       # Number of times an entry is inserted into the TLB (Count)
system.switch_cpus.mmu.stage2_itb.flushTlb            2                       # Number of times complete TLB was flushed (Count)
system.switch_cpus.mmu.stage2_itb.flushTlbMva            0                       # Number of times TLB was flushed by MVA (Count)
system.switch_cpus.mmu.stage2_itb.flushTlbMvaAsid            0                       # Number of times TLB was flushed by MVA & ASID (Count)
system.switch_cpus.mmu.stage2_itb.flushTlbAsid            0                       # Number of times TLB was flushed by ASID (Count)
system.switch_cpus.mmu.stage2_itb.flushedEntries            0                       # Number of entries that have been flushed from TLB (Count)
system.switch_cpus.mmu.stage2_itb.instAccesses            0                       # Inst accesses (Count)
system.switch_cpus.mmu.stage2_itb.hits              0                       # Total TLB (inst and data) hits (Count)
system.switch_cpus.mmu.stage2_itb.misses            0                       # Total TLB (inst and data) misses (Count)
system.switch_cpus.mmu.stage2_itb.accesses            0                       # Total TLB (inst and data) accesses (Count)
system.switch_cpus.mmu.stage2_itb_walker.walks            0                       # Table walker walks requested (Count)
system.switch_cpus.mmu.stage2_itb_walker.requestOrigin_Requested::Data            0                       # Table walker requests started/completed, data/inst (Count)
system.switch_cpus.mmu.stage2_itb_walker.requestOrigin_Requested::Inst            0                       # Table walker requests started/completed, data/inst (Count)
system.switch_cpus.mmu.stage2_itb_walker.requestOrigin_Requested::total            0                       # Table walker requests started/completed, data/inst (Count)
system.switch_cpus.mmu.stage2_itb_walker.requestOrigin_Completed::Data            0                       # Table walker requests started/completed, data/inst (Count)
system.switch_cpus.mmu.stage2_itb_walker.requestOrigin_Completed::Inst            0                       # Table walker requests started/completed, data/inst (Count)
system.switch_cpus.mmu.stage2_itb_walker.requestOrigin_Completed::total            0                       # Table walker requests started/completed, data/inst (Count)
system.switch_cpus.mmu.stage2_itb_walker.requestOrigin::total            0                       # Table walker requests started/completed, data/inst (Count)
system.switch_cpus.mmu.stage2_itb_walker.power_state.pwrStateResidencyTicks::UNDEFINED 10605134573000                       # Cumulative time (in ticks) in various power states (Tick)
system.switch_cpus.power_state.numTransitions            3                       # Number of power state transitions (Count)
system.switch_cpus.power_state.ticksClkGated::samples            1                       # Distribution of time spent in the clock gated state (Tick)
system.switch_cpus.power_state.ticksClkGated::mean    426944260                       # Distribution of time spent in the clock gated state (Tick)
system.switch_cpus.power_state.ticksClkGated::1000-5e+10            1    100.00%    100.00% # Distribution of time spent in the clock gated state (Tick)
system.switch_cpus.power_state.ticksClkGated::min_value    426944260                       # Distribution of time spent in the clock gated state (Tick)
system.switch_cpus.power_state.ticksClkGated::max_value    426944260                       # Distribution of time spent in the clock gated state (Tick)
system.switch_cpus.power_state.ticksClkGated::total            1                       # Distribution of time spent in the clock gated state (Tick)
system.switch_cpus.power_state.pwrStateResidencyTicks::ON 5028870126740                       # Cumulative time (in ticks) in various power states (Tick)
system.switch_cpus.power_state.pwrStateResidencyTicks::CLK_GATED    426944260                       # Cumulative time (in ticks) in various power states (Tick)
system.switch_cpus.power_state.pwrStateResidencyTicks::OFF 5575837502000                       # Cumulative time (in ticks) in various power states (Tick)
system.switch_cpus.rename.squashCycles        2233652                       # Number of cycles rename is squashing (Cycle)
system.switch_cpus.rename.idleCycles        299480793                       # Number of cycles rename is idle (Cycle)
system.switch_cpus.rename.blockCycles      1420307953                       # Number of cycles rename is blocking (Cycle)
system.switch_cpus.rename.serializeStallCycles     54141401                       # count of cycles rename stalled for serializing inst (Cycle)
system.switch_cpus.rename.runCycles         473324197                       # Number of cycles rename is running (Cycle)
system.switch_cpus.rename.unblockCycles    7685188628                       # Number of cycles rename is unblocking (Cycle)
system.switch_cpus.rename.renamedInsts     3914672086                       # Number of instructions processed by rename (Count)
system.switch_cpus.rename.ROBFullEvents        259794                       # Number of times rename has blocked due to ROB full (Count)
system.switch_cpus.rename.IQFullEvents       21709156                       # Number of times rename has blocked due to IQ full (Count)
system.switch_cpus.rename.LQFullEvents     6777186995                       # Number of times rename has blocked due to LQ full (Count)
system.switch_cpus.rename.SQFullEvents      880972357                       # Number of times rename has blocked due to SQ full (Count)
system.switch_cpus.rename.renamedOperands   5359279361                       # Number of destination operands rename has renamed (Count)
system.switch_cpus.rename.lookups         12082849453                       # Number of register rename lookups that rename has made (Count)
system.switch_cpus.rename.intLookups       3071982814                       # Number of integer rename lookups (Count)
system.switch_cpus.rename.vecLookups       2737545827                       # Number of vector rename lookups (Count)
system.switch_cpus.rename.committedMaps    5324395413                       # Number of HB maps that are committed (Count)
system.switch_cpus.rename.undoneMaps         34883948                       # Number of HB maps that are undone due to squashing (Count)
system.switch_cpus.rename.serializing          821001                       # count of serializing insts renamed (Count)
system.switch_cpus.rename.tempSerializing        78203                       # count of temporary serializing insts renamed (Count)
system.switch_cpus.rename.skidInsts        1274978135                       # count of insts added to the skid buffer (Count)
system.switch_cpus.rob.reads              13695460161                       # The number of ROB reads (Count)
system.switch_cpus.rob.writes              7822529841                       # The number of ROB writes (Count)
system.switch_cpus.thread_0.numInsts       3162217036                       # Number of Instructions committed (Count)
system.switch_cpus.thread_0.numOps         3881487961                       # Number of Ops committed (Count)
system.switch_cpus.thread_0.numMemRefs              0                       # Number of Memory References (Count)
system.tollcbus.transDist::ReadReq             214141                       # Transaction distribution (Count)
system.tollcbus.transDist::ReadResp         104051476                       # Transaction distribution (Count)
system.tollcbus.transDist::WriteReq             35123                       # Transaction distribution (Count)
system.tollcbus.transDist::WriteResp            35123                       # Transaction distribution (Count)
system.tollcbus.transDist::WritebackDirty     65514922                       # Transaction distribution (Count)
system.tollcbus.transDist::CleanEvict       206857227                       # Transaction distribution (Count)
system.tollcbus.transDist::UpgradeReq              11                       # Transaction distribution (Count)
system.tollcbus.transDist::UpgradeResp             11                       # Transaction distribution (Count)
system.tollcbus.transDist::ReadExReq         32387090                       # Transaction distribution (Count)
system.tollcbus.transDist::ReadExResp        32387090                       # Transaction distribution (Count)
system.tollcbus.transDist::ReadSharedReq    103837335                       # Transaction distribution (Count)
system.tollcbus.transDist::InvalidateReq       108111                       # Transaction distribution (Count)
system.tollcbus.transDist::InvalidateResp       108111                       # Transaction distribution (Count)
system.tollcbus.pktCount_system.cpu.l2cache.mem_side_port::system.llc.cpu_side_port    409487443                       # Packet count per connected requestor and responder (Count)
system.tollcbus.pktSize_system.cpu.l2cache.mem_side_port::system.llc.cpu_side_port  10825750148                       # Cumulative packet size per connected requestor and responder (Byte)
system.tollcbus.snoops                      136048328                       # Total snoops (Count)
system.tollcbus.snoopTraffic               2086490112                       # Total snoop traffic (Byte)
system.tollcbus.snoopFanout::samples        272434102                       # Request fanout histogram (Count)
system.tollcbus.snoopFanout::mean            0.003304                       # Request fanout histogram (Count)
system.tollcbus.snoopFanout::stdev           0.057387                       # Request fanout histogram (Count)
system.tollcbus.snoopFanout::underflows             0      0.00%      0.00% # Request fanout histogram (Count)
system.tollcbus.snoopFanout::0              271533936     99.67%     99.67% # Request fanout histogram (Count)
system.tollcbus.snoopFanout::1                 900166      0.33%    100.00% # Request fanout histogram (Count)
system.tollcbus.snoopFanout::overflows              0      0.00%    100.00% # Request fanout histogram (Count)
system.tollcbus.snoopFanout::min_value              0                       # Request fanout histogram (Count)
system.tollcbus.snoopFanout::max_value              1                       # Request fanout histogram (Count)
system.tollcbus.snoopFanout::total          272434102                       # Request fanout histogram (Count)
system.tollcbus.power_state.pwrStateResidencyTicks::UNDEFINED 10605134573000                       # Cumulative time (in ticks) in various power states (Tick)
system.tollcbus.reqLayer0.occupancy      169271204454                       # Layer occupancy (ticks) (Tick)
system.tollcbus.reqLayer0.utilization             0.0                       # Layer utilization (Ratio)
system.tollcbus.respLayer0.occupancy     204441318000                       # Layer occupancy (ticks) (Tick)
system.tollcbus.respLayer0.utilization            0.0                       # Layer utilization (Ratio)
system.tollcbus.snoop_filter.totRequests    272656368                       # Total number of requests made to the snoop filter. (Count)
system.tollcbus.snoop_filter.hitSingleRequests    136323834                       # Number of requests hitting in the snoop filter with a single holder of the requested data. (Count)
system.tollcbus.snoop_filter.hitMultiRequests            0                       # Number of requests hitting in the snoop filter with multiple (>1) holders of the requested data. (Count)
system.tollcbus.snoop_filter.totSnoops         900166                       # Total number of snoops made to the snoop filter. (Count)
system.tollcbus.snoop_filter.hitSingleSnoops       900166                       # Number of snoops hitting in the snoop filter with a single holder of the requested data. (Count)
system.tollcbus.snoop_filter.hitMultiSnoops            0                       # Number of snoops hitting in the snoop filter with multiple (>1) holders of the requested data. (Count)
system.voltage_domain.voltage                       1                       # Voltage in Volts (Volt)
system.workload.inst.arm                            0                       # number of arm instructions executed (Count)
system.workload.inst.quiesce                        1                       # number of quiesce instructions executed (Count)

---------- End Simulation Statistics   ----------
