
---------- Begin Simulation Statistics ----------
simSeconds                                 226.217851                       # Number of seconds simulated (Second)
simTicks                                 226217850930000                       # Number of ticks simulated (Tick)
finalTick                                226217850930000                       # Number of ticks from beginning of simulation (restored from checkpoints and never reset) (Tick)
simFreq                                  1000000000000                       # The number of ticks per simulated second ((Tick/Second))
hostSeconds                                  91332.38                       # Real time elapsed on the host (Second)
hostTickRate                               2476863709                       # The number of ticks simulated per host second (ticks/s) ((Tick/Second))
hostMemory                                   20408244                       # Number of bytes of host memory used (Byte)
simInsts                                  20493817287                       # Number of instructions simulated (Count)
simOps                                    21308162581                       # Number of ops (including micro ops) simulated (Count)
hostInstRate                                   224387                       # Simulator instruction rate (inst/s) ((Count/Second))
hostOpRate                                     233303                       # Simulator op (including micro ops) rate (op/s) ((Count/Second))
system.bridge.power_state.pwrStateResidencyTicks::UNDEFINED 226217850930000                       # Cumulative time (in ticks) in various power states (Tick)
system.clk_domain.clock                          1000                       # Clock period in ticks (Tick)
system.cpu.numCycles                      15466327409                       # Number of cpu cycles simulated (Cycle)
system.cpu.numWorkItemsStarted                      0                       # Number of work items this cpu started (Count)
system.cpu.numWorkItemsCompleted                    0                       # Number of work items this cpu completed (Count)
system.cpu.committedInsts                 11427943441                       # Number of instructions committed (Count)
system.cpu.numVMExits                         1426071                       # total number of KVM exits (Count)
system.cpu.numVMHalfEntries                         0                       # number of KVM entries to finalize pending operations (Count)
system.cpu.numExitSignal                       224985                       # exits due to signal delivery (Count)
system.cpu.numMMIO                            1201086                       # number of VM exits due to memory mapped IO (Count)
system.cpu.numCoalescedMMIO                         0                       # number of coalesced memory mapped IO requests (Count)
system.cpu.numIO                                    0                       # number of VM exits due to legacy IO (Count)
system.cpu.numHalt                                  0                       # number of VM exits due to wait for interrupt instructions (Count)
system.cpu.numInterrupts                            0                       # number of interrupts delivered (Count)
system.cpu.numHypercalls                            0                       # number of hypercalls (Count)
system.cpu.dcache.demandHits::switch_cpus.data   3512570762                       # number of demand (read+write) hits (Count)
system.cpu.dcache.demandHits::total        3512570762                       # number of demand (read+write) hits (Count)
system.cpu.dcache.overallHits::switch_cpus.data   3517369574                       # number of overall hits (Count)
system.cpu.dcache.overallHits::total       3517369574                       # number of overall hits (Count)
system.cpu.dcache.demandMisses::switch_cpus.data    396018232                       # number of demand (read+write) misses (Count)
system.cpu.dcache.demandMisses::total       396018232                       # number of demand (read+write) misses (Count)
system.cpu.dcache.overallMisses::switch_cpus.data    398982945                       # number of overall misses (Count)
system.cpu.dcache.overallMisses::total      398982945                       # number of overall misses (Count)
system.cpu.dcache.demandMissLatency::switch_cpus.data 13906363205791                       # number of demand (read+write) miss ticks (Tick)
system.cpu.dcache.demandMissLatency::total 13906363205791                       # number of demand (read+write) miss ticks (Tick)
system.cpu.dcache.overallMissLatency::switch_cpus.data 13906363205791                       # number of overall miss ticks (Tick)
system.cpu.dcache.overallMissLatency::total 13906363205791                       # number of overall miss ticks (Tick)
system.cpu.dcache.demandAccesses::switch_cpus.data   3908588994                       # number of demand (read+write) accesses (Count)
system.cpu.dcache.demandAccesses::total    3908588994                       # number of demand (read+write) accesses (Count)
system.cpu.dcache.overallAccesses::switch_cpus.data   3916352519                       # number of overall (read+write) accesses (Count)
system.cpu.dcache.overallAccesses::total   3916352519                       # number of overall (read+write) accesses (Count)
system.cpu.dcache.demandMissRate::switch_cpus.data     0.101320                       # miss rate for demand accesses (Ratio)
system.cpu.dcache.demandMissRate::total      0.101320                       # miss rate for demand accesses (Ratio)
system.cpu.dcache.overallMissRate::switch_cpus.data     0.101876                       # miss rate for overall accesses (Ratio)
system.cpu.dcache.overallMissRate::total     0.101876                       # miss rate for overall accesses (Ratio)
system.cpu.dcache.demandAvgMissLatency::switch_cpus.data 35115.462072                       # average overall miss latency in ticks ((Tick/Count))
system.cpu.dcache.demandAvgMissLatency::total 35115.462072                       # average overall miss latency in ticks ((Tick/Count))
system.cpu.dcache.overallAvgMissLatency::switch_cpus.data 34854.530451                       # average overall miss latency ((Tick/Count))
system.cpu.dcache.overallAvgMissLatency::total 34854.530451                       # average overall miss latency ((Tick/Count))
system.cpu.dcache.blockedCycles::no_mshrs   3992512640                       # number of cycles access was blocked (Cycle)
system.cpu.dcache.blockedCycles::no_targets      2298370                       # number of cycles access was blocked (Cycle)
system.cpu.dcache.blockedCauses::no_mshrs    232526049                       # number of times access was blocked (Count)
system.cpu.dcache.blockedCauses::no_targets        27570                       # number of times access was blocked (Count)
system.cpu.dcache.avgBlocked::no_mshrs      17.170174                       # average number of cycles each access was blocked ((Cycle/Count))
system.cpu.dcache.avgBlocked::no_targets    83.364889                       # average number of cycles each access was blocked ((Cycle/Count))
system.cpu.dcache.writebacks::writebacks    276814538                       # number of writebacks (Count)
system.cpu.dcache.writebacks::total         276814538                       # number of writebacks (Count)
system.cpu.dcache.demandMshrHits::switch_cpus.data     87519065                       # number of demand (read+write) MSHR hits (Count)
system.cpu.dcache.demandMshrHits::total      87519065                       # number of demand (read+write) MSHR hits (Count)
system.cpu.dcache.overallMshrHits::switch_cpus.data     87519065                       # number of overall MSHR hits (Count)
system.cpu.dcache.overallMshrHits::total     87519065                       # number of overall MSHR hits (Count)
system.cpu.dcache.demandMshrMisses::switch_cpus.data    308499167                       # number of demand (read+write) MSHR misses (Count)
system.cpu.dcache.demandMshrMisses::total    308499167                       # number of demand (read+write) MSHR misses (Count)
system.cpu.dcache.overallMshrMisses::switch_cpus.data    311081246                       # number of overall MSHR misses (Count)
system.cpu.dcache.overallMshrMisses::total    311081246                       # number of overall MSHR misses (Count)
system.cpu.dcache.overallMshrUncacheable::switch_cpus.data       362897                       # number of overall MSHR uncacheable misses (Count)
system.cpu.dcache.overallMshrUncacheable::total       362897                       # number of overall MSHR uncacheable misses (Count)
system.cpu.dcache.demandMshrMissLatency::switch_cpus.data 10482674807824                       # number of demand (read+write) MSHR miss ticks (Tick)
system.cpu.dcache.demandMshrMissLatency::total 10482674807824                       # number of demand (read+write) MSHR miss ticks (Tick)
system.cpu.dcache.overallMshrMissLatency::switch_cpus.data 10630505593824                       # number of overall MSHR miss ticks (Tick)
system.cpu.dcache.overallMshrMissLatency::total 10630505593824                       # number of overall MSHR miss ticks (Tick)
system.cpu.dcache.overallMshrUncacheableLatency::switch_cpus.data  21963032000                       # number of overall MSHR uncacheable ticks (Tick)
system.cpu.dcache.overallMshrUncacheableLatency::total  21963032000                       # number of overall MSHR uncacheable ticks (Tick)
system.cpu.dcache.demandMshrMissRate::switch_cpus.data     0.078929                       # mshr miss ratio for demand accesses (Ratio)
system.cpu.dcache.demandMshrMissRate::total     0.078929                       # mshr miss ratio for demand accesses (Ratio)
system.cpu.dcache.overallMshrMissRate::switch_cpus.data     0.079431                       # mshr miss ratio for overall accesses (Ratio)
system.cpu.dcache.overallMshrMissRate::total     0.079431                       # mshr miss ratio for overall accesses (Ratio)
system.cpu.dcache.demandAvgMshrMissLatency::switch_cpus.data 33979.588696                       # average overall mshr miss latency ((Tick/Count))
system.cpu.dcache.demandAvgMshrMissLatency::total 33979.588696                       # average overall mshr miss latency ((Tick/Count))
system.cpu.dcache.overallAvgMshrMissLatency::switch_cpus.data 34172.762680                       # average overall mshr miss latency ((Tick/Count))
system.cpu.dcache.overallAvgMshrMissLatency::total 34172.762680                       # average overall mshr miss latency ((Tick/Count))
system.cpu.dcache.overallAvgMshrUncacheableLatency::switch_cpus.data 60521.393123                       # average overall mshr uncacheable latency ((Tick/Count))
system.cpu.dcache.overallAvgMshrUncacheableLatency::total 60521.393123                       # average overall mshr uncacheable latency ((Tick/Count))
system.cpu.dcache.replacements              309791681                       # number of replacements (Count)
system.cpu.dcache.CleanSharedReq.missLatency::switch_cpus.data    482902083                       # number of CleanSharedReq miss ticks (Tick)
system.cpu.dcache.CleanSharedReq.missLatency::total    482902083                       # number of CleanSharedReq miss ticks (Tick)
system.cpu.dcache.CleanSharedReq.avgMissLatency::switch_cpus.data          inf                       # average CleanSharedReq miss latency ((Tick/Count))
system.cpu.dcache.CleanSharedReq.avgMissLatency::total          inf                       # average CleanSharedReq miss latency ((Tick/Count))
system.cpu.dcache.CleanSharedReq.mshrHits::switch_cpus.data         2494                       # number of CleanSharedReq MSHR hits (Count)
system.cpu.dcache.CleanSharedReq.mshrHits::total         2494                       # number of CleanSharedReq MSHR hits (Count)
system.cpu.dcache.CleanSharedReq.mshrMisses::switch_cpus.data       278985                       # number of CleanSharedReq MSHR misses (Count)
system.cpu.dcache.CleanSharedReq.mshrMisses::total       278985                       # number of CleanSharedReq MSHR misses (Count)
system.cpu.dcache.CleanSharedReq.mshrMissLatency::switch_cpus.data    731010162                       # number of CleanSharedReq MSHR miss ticks (Tick)
system.cpu.dcache.CleanSharedReq.mshrMissLatency::total    731010162                       # number of CleanSharedReq MSHR miss ticks (Tick)
system.cpu.dcache.CleanSharedReq.mshrMissRate::switch_cpus.data          inf                       # mshr miss rate for CleanSharedReq accesses (Ratio)
system.cpu.dcache.CleanSharedReq.mshrMissRate::total          inf                       # mshr miss rate for CleanSharedReq accesses (Ratio)
system.cpu.dcache.CleanSharedReq.avgMshrMissLatency::switch_cpus.data  2620.248981                       # average CleanSharedReq mshr miss latency ((Tick/Count))
system.cpu.dcache.CleanSharedReq.avgMshrMissLatency::total  2620.248981                       # average CleanSharedReq mshr miss latency ((Tick/Count))
system.cpu.dcache.LoadLockedReq.hits::switch_cpus.data          104                       # number of LoadLockedReq hits (Count)
system.cpu.dcache.LoadLockedReq.hits::total          104                       # number of LoadLockedReq hits (Count)
system.cpu.dcache.LoadLockedReq.misses::switch_cpus.data           35                       # number of LoadLockedReq misses (Count)
system.cpu.dcache.LoadLockedReq.misses::total           35                       # number of LoadLockedReq misses (Count)
system.cpu.dcache.LoadLockedReq.missLatency::switch_cpus.data      2357500                       # number of LoadLockedReq miss ticks (Tick)
system.cpu.dcache.LoadLockedReq.missLatency::total      2357500                       # number of LoadLockedReq miss ticks (Tick)
system.cpu.dcache.LoadLockedReq.accesses::switch_cpus.data          139                       # number of LoadLockedReq accesses(hits+misses) (Count)
system.cpu.dcache.LoadLockedReq.accesses::total          139                       # number of LoadLockedReq accesses(hits+misses) (Count)
system.cpu.dcache.LoadLockedReq.missRate::switch_cpus.data     0.251799                       # miss rate for LoadLockedReq accesses (Ratio)
system.cpu.dcache.LoadLockedReq.missRate::total     0.251799                       # miss rate for LoadLockedReq accesses (Ratio)
system.cpu.dcache.LoadLockedReq.avgMissLatency::switch_cpus.data 67357.142857                       # average LoadLockedReq miss latency ((Tick/Count))
system.cpu.dcache.LoadLockedReq.avgMissLatency::total 67357.142857                       # average LoadLockedReq miss latency ((Tick/Count))
system.cpu.dcache.LoadLockedReq.mshrHits::switch_cpus.data           10                       # number of LoadLockedReq MSHR hits (Count)
system.cpu.dcache.LoadLockedReq.mshrHits::total           10                       # number of LoadLockedReq MSHR hits (Count)
system.cpu.dcache.LoadLockedReq.mshrMisses::switch_cpus.data           25                       # number of LoadLockedReq MSHR misses (Count)
system.cpu.dcache.LoadLockedReq.mshrMisses::total           25                       # number of LoadLockedReq MSHR misses (Count)
system.cpu.dcache.LoadLockedReq.mshrMissLatency::switch_cpus.data      1292500                       # number of LoadLockedReq MSHR miss ticks (Tick)
system.cpu.dcache.LoadLockedReq.mshrMissLatency::total      1292500                       # number of LoadLockedReq MSHR miss ticks (Tick)
system.cpu.dcache.LoadLockedReq.mshrMissRate::switch_cpus.data     0.179856                       # mshr miss rate for LoadLockedReq accesses (Ratio)
system.cpu.dcache.LoadLockedReq.mshrMissRate::total     0.179856                       # mshr miss rate for LoadLockedReq accesses (Ratio)
system.cpu.dcache.LoadLockedReq.avgMshrMissLatency::switch_cpus.data        51700                       # average LoadLockedReq mshr miss latency ((Tick/Count))
system.cpu.dcache.LoadLockedReq.avgMshrMissLatency::total        51700                       # average LoadLockedReq mshr miss latency ((Tick/Count))
system.cpu.dcache.ReadReq.hits::switch_cpus.data   2638162147                       # number of ReadReq hits (Count)
system.cpu.dcache.ReadReq.hits::total      2638162147                       # number of ReadReq hits (Count)
system.cpu.dcache.ReadReq.misses::switch_cpus.data    106385179                       # number of ReadReq misses (Count)
system.cpu.dcache.ReadReq.misses::total     106385179                       # number of ReadReq misses (Count)
system.cpu.dcache.ReadReq.missLatency::switch_cpus.data 3482684868500                       # number of ReadReq miss ticks (Tick)
system.cpu.dcache.ReadReq.missLatency::total 3482684868500                       # number of ReadReq miss ticks (Tick)
system.cpu.dcache.ReadReq.accesses::switch_cpus.data   2744547326                       # number of ReadReq accesses(hits+misses) (Count)
system.cpu.dcache.ReadReq.accesses::total   2744547326                       # number of ReadReq accesses(hits+misses) (Count)
system.cpu.dcache.ReadReq.missRate::switch_cpus.data     0.038762                       # miss rate for ReadReq accesses (Ratio)
system.cpu.dcache.ReadReq.missRate::total     0.038762                       # miss rate for ReadReq accesses (Ratio)
system.cpu.dcache.ReadReq.avgMissLatency::switch_cpus.data 32736.560687                       # average ReadReq miss latency ((Tick/Count))
system.cpu.dcache.ReadReq.avgMissLatency::total 32736.560687                       # average ReadReq miss latency ((Tick/Count))
system.cpu.dcache.ReadReq.mshrHits::switch_cpus.data     49897901                       # number of ReadReq MSHR hits (Count)
system.cpu.dcache.ReadReq.mshrHits::total     49897901                       # number of ReadReq MSHR hits (Count)
system.cpu.dcache.ReadReq.mshrMisses::switch_cpus.data     56487278                       # number of ReadReq MSHR misses (Count)
system.cpu.dcache.ReadReq.mshrMisses::total     56487278                       # number of ReadReq MSHR misses (Count)
system.cpu.dcache.ReadReq.mshrUncacheable::switch_cpus.data       348162                       # number of ReadReq MSHR uncacheable (Count)
system.cpu.dcache.ReadReq.mshrUncacheable::total       348162                       # number of ReadReq MSHR uncacheable (Count)
system.cpu.dcache.ReadReq.mshrMissLatency::switch_cpus.data 1802390785007                       # number of ReadReq MSHR miss ticks (Tick)
system.cpu.dcache.ReadReq.mshrMissLatency::total 1802390785007                       # number of ReadReq MSHR miss ticks (Tick)
system.cpu.dcache.ReadReq.mshrUncacheableLatency::switch_cpus.data  21963032000                       # number of ReadReq MSHR uncacheable ticks (Tick)
system.cpu.dcache.ReadReq.mshrUncacheableLatency::total  21963032000                       # number of ReadReq MSHR uncacheable ticks (Tick)
system.cpu.dcache.ReadReq.mshrMissRate::switch_cpus.data     0.020582                       # mshr miss rate for ReadReq accesses (Ratio)
system.cpu.dcache.ReadReq.mshrMissRate::total     0.020582                       # mshr miss rate for ReadReq accesses (Ratio)
system.cpu.dcache.ReadReq.avgMshrMissLatency::switch_cpus.data 31907.906503                       # average ReadReq mshr miss latency ((Tick/Count))
system.cpu.dcache.ReadReq.avgMshrMissLatency::total 31907.906503                       # average ReadReq mshr miss latency ((Tick/Count))
system.cpu.dcache.ReadReq.avgMshrUncacheableLatency::switch_cpus.data 63082.794791                       # average ReadReq mshr uncacheable latency ((Tick/Count))
system.cpu.dcache.ReadReq.avgMshrUncacheableLatency::total 63082.794791                       # average ReadReq mshr uncacheable latency ((Tick/Count))
system.cpu.dcache.SoftPFExReq.hits::switch_cpus.data      3077760                       # number of SoftPFExReq hits (Count)
system.cpu.dcache.SoftPFExReq.hits::total      3077760                       # number of SoftPFExReq hits (Count)
system.cpu.dcache.SoftPFExReq.misses::switch_cpus.data      2764500                       # number of SoftPFExReq misses (Count)
system.cpu.dcache.SoftPFExReq.misses::total      2764500                       # number of SoftPFExReq misses (Count)
system.cpu.dcache.SoftPFExReq.accesses::switch_cpus.data      5842260                       # number of SoftPFExReq accesses(hits+misses) (Count)
system.cpu.dcache.SoftPFExReq.accesses::total      5842260                       # number of SoftPFExReq accesses(hits+misses) (Count)
system.cpu.dcache.SoftPFExReq.missRate::switch_cpus.data     0.473190                       # miss rate for SoftPFExReq accesses (Ratio)
system.cpu.dcache.SoftPFExReq.missRate::total     0.473190                       # miss rate for SoftPFExReq accesses (Ratio)
system.cpu.dcache.SoftPFExReq.mshrMisses::switch_cpus.data      2475494                       # number of SoftPFExReq MSHR misses (Count)
system.cpu.dcache.SoftPFExReq.mshrMisses::total      2475494                       # number of SoftPFExReq MSHR misses (Count)
system.cpu.dcache.SoftPFExReq.mshrMissLatency::switch_cpus.data 141902720000                       # number of SoftPFExReq MSHR miss ticks (Tick)
system.cpu.dcache.SoftPFExReq.mshrMissLatency::total 141902720000                       # number of SoftPFExReq MSHR miss ticks (Tick)
system.cpu.dcache.SoftPFExReq.mshrMissRate::switch_cpus.data     0.423722                       # mshr miss rate for SoftPFExReq accesses (Ratio)
system.cpu.dcache.SoftPFExReq.mshrMissRate::total     0.423722                       # mshr miss rate for SoftPFExReq accesses (Ratio)
system.cpu.dcache.SoftPFExReq.avgMshrMissLatency::switch_cpus.data 57322.990886                       # average SoftPFExReq mshr miss latency ((Tick/Count))
system.cpu.dcache.SoftPFExReq.avgMshrMissLatency::total 57322.990886                       # average SoftPFExReq mshr miss latency ((Tick/Count))
system.cpu.dcache.SoftPFReq.hits::switch_cpus.data      1721052                       # number of SoftPFReq hits (Count)
system.cpu.dcache.SoftPFReq.hits::total       1721052                       # number of SoftPFReq hits (Count)
system.cpu.dcache.SoftPFReq.misses::switch_cpus.data       200213                       # number of SoftPFReq misses (Count)
system.cpu.dcache.SoftPFReq.misses::total       200213                       # number of SoftPFReq misses (Count)
system.cpu.dcache.SoftPFReq.accesses::switch_cpus.data      1921265                       # number of SoftPFReq accesses(hits+misses) (Count)
system.cpu.dcache.SoftPFReq.accesses::total      1921265                       # number of SoftPFReq accesses(hits+misses) (Count)
system.cpu.dcache.SoftPFReq.missRate::switch_cpus.data     0.104209                       # miss rate for SoftPFReq accesses (Ratio)
system.cpu.dcache.SoftPFReq.missRate::total     0.104209                       # miss rate for SoftPFReq accesses (Ratio)
system.cpu.dcache.SoftPFReq.mshrMisses::switch_cpus.data       106585                       # number of SoftPFReq MSHR misses (Count)
system.cpu.dcache.SoftPFReq.mshrMisses::total       106585                       # number of SoftPFReq MSHR misses (Count)
system.cpu.dcache.SoftPFReq.mshrMissLatency::switch_cpus.data   5928066000                       # number of SoftPFReq MSHR miss ticks (Tick)
system.cpu.dcache.SoftPFReq.mshrMissLatency::total   5928066000                       # number of SoftPFReq MSHR miss ticks (Tick)
system.cpu.dcache.SoftPFReq.mshrMissRate::switch_cpus.data     0.055476                       # mshr miss rate for SoftPFReq accesses (Ratio)
system.cpu.dcache.SoftPFReq.mshrMissRate::total     0.055476                       # mshr miss rate for SoftPFReq accesses (Ratio)
system.cpu.dcache.SoftPFReq.avgMshrMissLatency::switch_cpus.data 55618.201435                       # average SoftPFReq mshr miss latency ((Tick/Count))
system.cpu.dcache.SoftPFReq.avgMshrMissLatency::total 55618.201435                       # average SoftPFReq mshr miss latency ((Tick/Count))
system.cpu.dcache.StoreCondReq.hits::switch_cpus.data           77                       # number of StoreCondReq hits (Count)
system.cpu.dcache.StoreCondReq.hits::total           77                       # number of StoreCondReq hits (Count)
system.cpu.dcache.StoreCondReq.accesses::switch_cpus.data           77                       # number of StoreCondReq accesses(hits+misses) (Count)
system.cpu.dcache.StoreCondReq.accesses::total           77                       # number of StoreCondReq accesses(hits+misses) (Count)
system.cpu.dcache.SwapReq.hits::switch_cpus.data     30490078                       # number of SwapReq hits (Count)
system.cpu.dcache.SwapReq.hits::total        30490078                       # number of SwapReq hits (Count)
system.cpu.dcache.SwapReq.misses::switch_cpus.data       161872                       # number of SwapReq misses (Count)
system.cpu.dcache.SwapReq.misses::total        161872                       # number of SwapReq misses (Count)
system.cpu.dcache.SwapReq.missLatency::switch_cpus.data   4921127999                       # number of SwapReq miss ticks (Tick)
system.cpu.dcache.SwapReq.missLatency::total   4921127999                       # number of SwapReq miss ticks (Tick)
system.cpu.dcache.SwapReq.accesses::switch_cpus.data     30651950                       # number of SwapReq accesses(hits+misses) (Count)
system.cpu.dcache.SwapReq.accesses::total     30651950                       # number of SwapReq accesses(hits+misses) (Count)
system.cpu.dcache.SwapReq.missRate::switch_cpus.data     0.005281                       # miss rate for SwapReq accesses (Ratio)
system.cpu.dcache.SwapReq.missRate::total     0.005281                       # miss rate for SwapReq accesses (Ratio)
system.cpu.dcache.SwapReq.avgMissLatency::switch_cpus.data 30401.354150                       # average SwapReq miss latency ((Tick/Count))
system.cpu.dcache.SwapReq.avgMissLatency::total 30401.354150                       # average SwapReq miss latency ((Tick/Count))
system.cpu.dcache.SwapReq.mshrHits::switch_cpus.data           31                       # number of SwapReq MSHR hits (Count)
system.cpu.dcache.SwapReq.mshrHits::total           31                       # number of SwapReq MSHR hits (Count)
system.cpu.dcache.SwapReq.mshrMisses::switch_cpus.data       161841                       # number of SwapReq MSHR misses (Count)
system.cpu.dcache.SwapReq.mshrMisses::total       161841                       # number of SwapReq MSHR misses (Count)
system.cpu.dcache.SwapReq.mshrMissLatency::switch_cpus.data   4758241999                       # number of SwapReq MSHR miss ticks (Tick)
system.cpu.dcache.SwapReq.mshrMissLatency::total   4758241999                       # number of SwapReq MSHR miss ticks (Tick)
system.cpu.dcache.SwapReq.mshrMissRate::switch_cpus.data     0.005280                       # mshr miss rate for SwapReq accesses (Ratio)
system.cpu.dcache.SwapReq.mshrMissRate::total     0.005280                       # mshr miss rate for SwapReq accesses (Ratio)
system.cpu.dcache.SwapReq.avgMshrMissLatency::switch_cpus.data 29400.720454                       # average SwapReq mshr miss latency ((Tick/Count))
system.cpu.dcache.SwapReq.avgMshrMissLatency::total 29400.720454                       # average SwapReq mshr miss latency ((Tick/Count))
system.cpu.dcache.WriteLineReq.hits::switch_cpus.data       407913                       # number of WriteLineReq hits (Count)
system.cpu.dcache.WriteLineReq.hits::total       407913                       # number of WriteLineReq hits (Count)
system.cpu.dcache.WriteLineReq.misses::switch_cpus.data    169988411                       # number of WriteLineReq misses (Count)
system.cpu.dcache.WriteLineReq.misses::total    169988411                       # number of WriteLineReq misses (Count)
system.cpu.dcache.WriteLineReq.missLatency::switch_cpus.data 7045444761608                       # number of WriteLineReq miss ticks (Tick)
system.cpu.dcache.WriteLineReq.missLatency::total 7045444761608                       # number of WriteLineReq miss ticks (Tick)
system.cpu.dcache.WriteLineReq.accesses::switch_cpus.data    170396324                       # number of WriteLineReq accesses(hits+misses) (Count)
system.cpu.dcache.WriteLineReq.accesses::total    170396324                       # number of WriteLineReq accesses(hits+misses) (Count)
system.cpu.dcache.WriteLineReq.missRate::switch_cpus.data     0.997606                       # miss rate for WriteLineReq accesses (Ratio)
system.cpu.dcache.WriteLineReq.missRate::total     0.997606                       # miss rate for WriteLineReq accesses (Ratio)
system.cpu.dcache.WriteLineReq.avgMissLatency::switch_cpus.data 41446.618156                       # average WriteLineReq miss latency ((Tick/Count))
system.cpu.dcache.WriteLineReq.avgMissLatency::total 41446.618156                       # average WriteLineReq miss latency ((Tick/Count))
system.cpu.dcache.WriteLineReq.mshrHits::switch_cpus.data          263                       # number of WriteLineReq MSHR hits (Count)
system.cpu.dcache.WriteLineReq.mshrHits::total          263                       # number of WriteLineReq MSHR hits (Count)
system.cpu.dcache.WriteLineReq.mshrMisses::switch_cpus.data    169988148                       # number of WriteLineReq MSHR misses (Count)
system.cpu.dcache.WriteLineReq.mshrMisses::total    169988148                       # number of WriteLineReq MSHR misses (Count)
system.cpu.dcache.WriteLineReq.mshrMissLatency::switch_cpus.data 6875437287110                       # number of WriteLineReq MSHR miss ticks (Tick)
system.cpu.dcache.WriteLineReq.mshrMissLatency::total 6875437287110                       # number of WriteLineReq MSHR miss ticks (Tick)
system.cpu.dcache.WriteLineReq.mshrMissRate::switch_cpus.data     0.997605                       # mshr miss rate for WriteLineReq accesses (Ratio)
system.cpu.dcache.WriteLineReq.mshrMissRate::total     0.997605                       # mshr miss rate for WriteLineReq accesses (Ratio)
system.cpu.dcache.WriteLineReq.avgMshrMissLatency::switch_cpus.data 40446.568587                       # average WriteLineReq mshr miss latency ((Tick/Count))
system.cpu.dcache.WriteLineReq.avgMshrMissLatency::total 40446.568587                       # average WriteLineReq mshr miss latency ((Tick/Count))
system.cpu.dcache.WriteReq.hits::switch_cpus.data    874000702                       # number of WriteReq hits (Count)
system.cpu.dcache.WriteReq.hits::total      874000702                       # number of WriteReq hits (Count)
system.cpu.dcache.WriteReq.misses::switch_cpus.data    119644642                       # number of WriteReq misses (Count)
system.cpu.dcache.WriteReq.misses::total    119644642                       # number of WriteReq misses (Count)
system.cpu.dcache.WriteReq.missLatency::switch_cpus.data 3378233575683                       # number of WriteReq miss ticks (Tick)
system.cpu.dcache.WriteReq.missLatency::total 3378233575683                       # number of WriteReq miss ticks (Tick)
system.cpu.dcache.WriteReq.accesses::switch_cpus.data    993645344                       # number of WriteReq accesses(hits+misses) (Count)
system.cpu.dcache.WriteReq.accesses::total    993645344                       # number of WriteReq accesses(hits+misses) (Count)
system.cpu.dcache.WriteReq.missRate::switch_cpus.data     0.120410                       # miss rate for WriteReq accesses (Ratio)
system.cpu.dcache.WriteReq.missRate::total     0.120410                       # miss rate for WriteReq accesses (Ratio)
system.cpu.dcache.WriteReq.avgMissLatency::switch_cpus.data 28235.560901                       # average WriteReq miss latency ((Tick/Count))
system.cpu.dcache.WriteReq.avgMissLatency::total 28235.560901                       # average WriteReq miss latency ((Tick/Count))
system.cpu.dcache.WriteReq.mshrHits::switch_cpus.data     37620901                       # number of WriteReq MSHR hits (Count)
system.cpu.dcache.WriteReq.mshrHits::total     37620901                       # number of WriteReq MSHR hits (Count)
system.cpu.dcache.WriteReq.mshrMisses::switch_cpus.data     82023741                       # number of WriteReq MSHR misses (Count)
system.cpu.dcache.WriteReq.mshrMisses::total     82023741                       # number of WriteReq MSHR misses (Count)
system.cpu.dcache.WriteReq.mshrUncacheable::switch_cpus.data        14735                       # number of WriteReq MSHR uncacheable (Count)
system.cpu.dcache.WriteReq.mshrUncacheable::total        14735                       # number of WriteReq MSHR uncacheable (Count)
system.cpu.dcache.WriteReq.mshrMissLatency::switch_cpus.data 1804846735707                       # number of WriteReq MSHR miss ticks (Tick)
system.cpu.dcache.WriteReq.mshrMissLatency::total 1804846735707                       # number of WriteReq MSHR miss ticks (Tick)
system.cpu.dcache.WriteReq.mshrMissRate::switch_cpus.data     0.082548                       # mshr miss rate for WriteReq accesses (Ratio)
system.cpu.dcache.WriteReq.mshrMissRate::total     0.082548                       # mshr miss rate for WriteReq accesses (Ratio)
system.cpu.dcache.WriteReq.avgMshrMissLatency::switch_cpus.data 22003.955363                       # average WriteReq mshr miss latency ((Tick/Count))
system.cpu.dcache.WriteReq.avgMshrMissLatency::total 22003.955363                       # average WriteReq mshr miss latency ((Tick/Count))
system.cpu.dcache.power_state.pwrStateResidencyTicks::UNDEFINED 226217850930000                       # Cumulative time (in ticks) in various power states (Tick)
system.cpu.dcache.tags.tagsInUse            35.670286                       # Average ticks per tags in use ((Tick/Count))
system.cpu.dcache.tags.totalRefs           3860199373                       # Total number of references to valid blocks. (Count)
system.cpu.dcache.tags.sampledRefs          309792705                       # Sample count of references to valid blocks. (Count)
system.cpu.dcache.tags.avgRefs              12.460588                       # Average number of references to valid blocks. ((Count/Count))
system.cpu.dcache.tags.warmupTick        218333298273500                       # The tick when the warmup percentage was hit. (Tick)
system.cpu.dcache.tags.occupancies::switch_cpus.data    35.670286                       # Average occupied blocks per tick, per requestor ((Count/Tick))
system.cpu.dcache.tags.avgOccs::switch_cpus.data     0.034834                       # Average percentage of cache occupancy ((Ratio/Tick))
system.cpu.dcache.tags.avgOccs::total        0.034834                       # Average percentage of cache occupancy ((Ratio/Tick))
system.cpu.dcache.tags.tagAccesses        16098937361                       # Number of tag accesses (Count)
system.cpu.dcache.tags.dataAccesses       16098937361                       # Number of data accesses (Count)
system.cpu.dcache.tags.power_state.pwrStateResidencyTicks::UNDEFINED 226217850930000                       # Cumulative time (in ticks) in various power states (Tick)
system.cpu.icache.demandHits::switch_cpus.inst   1979881842                       # number of demand (read+write) hits (Count)
system.cpu.icache.demandHits::total        1979881842                       # number of demand (read+write) hits (Count)
system.cpu.icache.overallHits::switch_cpus.inst   1979881842                       # number of overall hits (Count)
system.cpu.icache.overallHits::total       1979881842                       # number of overall hits (Count)
system.cpu.icache.demandMisses::switch_cpus.inst     53544544                       # number of demand (read+write) misses (Count)
system.cpu.icache.demandMisses::total        53544544                       # number of demand (read+write) misses (Count)
system.cpu.icache.overallMisses::switch_cpus.inst     53544544                       # number of overall misses (Count)
system.cpu.icache.overallMisses::total       53544544                       # number of overall misses (Count)
system.cpu.icache.demandMissLatency::switch_cpus.inst 1566837633648                       # number of demand (read+write) miss ticks (Tick)
system.cpu.icache.demandMissLatency::total 1566837633648                       # number of demand (read+write) miss ticks (Tick)
system.cpu.icache.overallMissLatency::switch_cpus.inst 1566837633648                       # number of overall miss ticks (Tick)
system.cpu.icache.overallMissLatency::total 1566837633648                       # number of overall miss ticks (Tick)
system.cpu.icache.demandAccesses::switch_cpus.inst   2033426386                       # number of demand (read+write) accesses (Count)
system.cpu.icache.demandAccesses::total    2033426386                       # number of demand (read+write) accesses (Count)
system.cpu.icache.overallAccesses::switch_cpus.inst   2033426386                       # number of overall (read+write) accesses (Count)
system.cpu.icache.overallAccesses::total   2033426386                       # number of overall (read+write) accesses (Count)
system.cpu.icache.demandMissRate::switch_cpus.inst     0.026332                       # miss rate for demand accesses (Ratio)
system.cpu.icache.demandMissRate::total      0.026332                       # miss rate for demand accesses (Ratio)
system.cpu.icache.overallMissRate::switch_cpus.inst     0.026332                       # miss rate for overall accesses (Ratio)
system.cpu.icache.overallMissRate::total     0.026332                       # miss rate for overall accesses (Ratio)
system.cpu.icache.demandAvgMissLatency::switch_cpus.inst 29262.320987                       # average overall miss latency in ticks ((Tick/Count))
system.cpu.icache.demandAvgMissLatency::total 29262.320987                       # average overall miss latency in ticks ((Tick/Count))
system.cpu.icache.overallAvgMissLatency::switch_cpus.inst 29262.320987                       # average overall miss latency ((Tick/Count))
system.cpu.icache.overallAvgMissLatency::total 29262.320987                       # average overall miss latency ((Tick/Count))
system.cpu.icache.blockedCycles::no_mshrs      4602585                       # number of cycles access was blocked (Cycle)
system.cpu.icache.blockedCycles::no_targets          305                       # number of cycles access was blocked (Cycle)
system.cpu.icache.blockedCauses::no_mshrs       137276                       # number of times access was blocked (Count)
system.cpu.icache.blockedCauses::no_targets            2                       # number of times access was blocked (Count)
system.cpu.icache.avgBlocked::no_mshrs      33.527966                       # average number of cycles each access was blocked ((Cycle/Count))
system.cpu.icache.avgBlocked::no_targets   152.500000                       # average number of cycles each access was blocked ((Cycle/Count))
system.cpu.icache.writebacks::writebacks     47207498                       # number of writebacks (Count)
system.cpu.icache.writebacks::total          47207498                       # number of writebacks (Count)
system.cpu.icache.demandMshrHits::switch_cpus.inst      6334932                       # number of demand (read+write) MSHR hits (Count)
system.cpu.icache.demandMshrHits::total       6334932                       # number of demand (read+write) MSHR hits (Count)
system.cpu.icache.overallMshrHits::switch_cpus.inst      6334932                       # number of overall MSHR hits (Count)
system.cpu.icache.overallMshrHits::total      6334932                       # number of overall MSHR hits (Count)
system.cpu.icache.demandMshrMisses::switch_cpus.inst     47209612                       # number of demand (read+write) MSHR misses (Count)
system.cpu.icache.demandMshrMisses::total     47209612                       # number of demand (read+write) MSHR misses (Count)
system.cpu.icache.overallMshrMisses::switch_cpus.inst     47209612                       # number of overall MSHR misses (Count)
system.cpu.icache.overallMshrMisses::total     47209612                       # number of overall MSHR misses (Count)
system.cpu.icache.demandMshrMissLatency::switch_cpus.inst 1328807903591                       # number of demand (read+write) MSHR miss ticks (Tick)
system.cpu.icache.demandMshrMissLatency::total 1328807903591                       # number of demand (read+write) MSHR miss ticks (Tick)
system.cpu.icache.overallMshrMissLatency::switch_cpus.inst 1328807903591                       # number of overall MSHR miss ticks (Tick)
system.cpu.icache.overallMshrMissLatency::total 1328807903591                       # number of overall MSHR miss ticks (Tick)
system.cpu.icache.demandMshrMissRate::switch_cpus.inst     0.023217                       # mshr miss ratio for demand accesses (Ratio)
system.cpu.icache.demandMshrMissRate::total     0.023217                       # mshr miss ratio for demand accesses (Ratio)
system.cpu.icache.overallMshrMissRate::switch_cpus.inst     0.023217                       # mshr miss ratio for overall accesses (Ratio)
system.cpu.icache.overallMshrMissRate::total     0.023217                       # mshr miss ratio for overall accesses (Ratio)
system.cpu.icache.demandAvgMshrMissLatency::switch_cpus.inst 28146.977857                       # average overall mshr miss latency ((Tick/Count))
system.cpu.icache.demandAvgMshrMissLatency::total 28146.977857                       # average overall mshr miss latency ((Tick/Count))
system.cpu.icache.overallAvgMshrMissLatency::switch_cpus.inst 28146.977857                       # average overall mshr miss latency ((Tick/Count))
system.cpu.icache.overallAvgMshrMissLatency::total 28146.977857                       # average overall mshr miss latency ((Tick/Count))
system.cpu.icache.replacements               47207498                       # number of replacements (Count)
system.cpu.icache.ReadReq.hits::switch_cpus.inst   1979881842                       # number of ReadReq hits (Count)
system.cpu.icache.ReadReq.hits::total      1979881842                       # number of ReadReq hits (Count)
system.cpu.icache.ReadReq.misses::switch_cpus.inst     53544544                       # number of ReadReq misses (Count)
system.cpu.icache.ReadReq.misses::total      53544544                       # number of ReadReq misses (Count)
system.cpu.icache.ReadReq.missLatency::switch_cpus.inst 1566837633648                       # number of ReadReq miss ticks (Tick)
system.cpu.icache.ReadReq.missLatency::total 1566837633648                       # number of ReadReq miss ticks (Tick)
system.cpu.icache.ReadReq.accesses::switch_cpus.inst   2033426386                       # number of ReadReq accesses(hits+misses) (Count)
system.cpu.icache.ReadReq.accesses::total   2033426386                       # number of ReadReq accesses(hits+misses) (Count)
system.cpu.icache.ReadReq.missRate::switch_cpus.inst     0.026332                       # miss rate for ReadReq accesses (Ratio)
system.cpu.icache.ReadReq.missRate::total     0.026332                       # miss rate for ReadReq accesses (Ratio)
system.cpu.icache.ReadReq.avgMissLatency::switch_cpus.inst 29262.320987                       # average ReadReq miss latency ((Tick/Count))
system.cpu.icache.ReadReq.avgMissLatency::total 29262.320987                       # average ReadReq miss latency ((Tick/Count))
system.cpu.icache.ReadReq.mshrHits::switch_cpus.inst      6334932                       # number of ReadReq MSHR hits (Count)
system.cpu.icache.ReadReq.mshrHits::total      6334932                       # number of ReadReq MSHR hits (Count)
system.cpu.icache.ReadReq.mshrMisses::switch_cpus.inst     47209612                       # number of ReadReq MSHR misses (Count)
system.cpu.icache.ReadReq.mshrMisses::total     47209612                       # number of ReadReq MSHR misses (Count)
system.cpu.icache.ReadReq.mshrMissLatency::switch_cpus.inst 1328807903591                       # number of ReadReq MSHR miss ticks (Tick)
system.cpu.icache.ReadReq.mshrMissLatency::total 1328807903591                       # number of ReadReq MSHR miss ticks (Tick)
system.cpu.icache.ReadReq.mshrMissRate::switch_cpus.inst     0.023217                       # mshr miss rate for ReadReq accesses (Ratio)
system.cpu.icache.ReadReq.mshrMissRate::total     0.023217                       # mshr miss rate for ReadReq accesses (Ratio)
system.cpu.icache.ReadReq.avgMshrMissLatency::switch_cpus.inst 28146.977857                       # average ReadReq mshr miss latency ((Tick/Count))
system.cpu.icache.ReadReq.avgMshrMissLatency::total 28146.977857                       # average ReadReq mshr miss latency ((Tick/Count))
system.cpu.icache.power_state.pwrStateResidencyTicks::UNDEFINED 226217850930000                       # Cumulative time (in ticks) in various power states (Tick)
system.cpu.icache.tags.tagsInUse            35.670500                       # Average ticks per tags in use ((Tick/Count))
system.cpu.icache.tags.totalRefs           2027091454                       # Total number of references to valid blocks. (Count)
system.cpu.icache.tags.sampledRefs           47209612                       # Sample count of references to valid blocks. (Count)
system.cpu.icache.tags.avgRefs              42.938109                       # Average number of references to valid blocks. ((Count/Count))
system.cpu.icache.tags.warmupTick        218333297793500                       # The tick when the warmup percentage was hit. (Tick)
system.cpu.icache.tags.occupancies::switch_cpus.inst    35.670500                       # Average occupied blocks per tick, per requestor ((Count/Tick))
system.cpu.icache.tags.avgOccs::switch_cpus.inst     0.034834                       # Average percentage of cache occupancy ((Ratio/Tick))
system.cpu.icache.tags.avgOccs::total        0.034834                       # Average percentage of cache occupancy ((Ratio/Tick))
system.cpu.icache.tags.tagAccesses         8180915156                       # Number of tag accesses (Count)
system.cpu.icache.tags.dataAccesses        8180915156                       # Number of data accesses (Count)
system.cpu.icache.tags.power_state.pwrStateResidencyTicks::UNDEFINED 226217850930000                       # Cumulative time (in ticks) in various power states (Tick)
system.cpu.l2cache.demandHits::switch_cpus.mmu.dtb_walker     18093085                       # number of demand (read+write) hits (Count)
system.cpu.l2cache.demandHits::switch_cpus.mmu.itb_walker       548751                       # number of demand (read+write) hits (Count)
system.cpu.l2cache.demandHits::switch_cpus.inst     33288933                       # number of demand (read+write) hits (Count)
system.cpu.l2cache.demandHits::switch_cpus.data    111855956                       # number of demand (read+write) hits (Count)
system.cpu.l2cache.demandHits::total        163786725                       # number of demand (read+write) hits (Count)
system.cpu.l2cache.overallHits::switch_cpus.mmu.dtb_walker     18093085                       # number of overall hits (Count)
system.cpu.l2cache.overallHits::switch_cpus.mmu.itb_walker       548751                       # number of overall hits (Count)
system.cpu.l2cache.overallHits::switch_cpus.inst     33288933                       # number of overall hits (Count)
system.cpu.l2cache.overallHits::switch_cpus.data    111855956                       # number of overall hits (Count)
system.cpu.l2cache.overallHits::total       163786725                       # number of overall hits (Count)
system.cpu.l2cache.demandMisses::switch_cpus.mmu.dtb_walker       392963                       # number of demand (read+write) misses (Count)
system.cpu.l2cache.demandMisses::switch_cpus.mmu.itb_walker        98356                       # number of demand (read+write) misses (Count)
system.cpu.l2cache.demandMisses::switch_cpus.inst     13920509                       # number of demand (read+write) misses (Count)
system.cpu.l2cache.demandMisses::switch_cpus.data     27479810                       # number of demand (read+write) misses (Count)
system.cpu.l2cache.demandMisses::total       41891638                       # number of demand (read+write) misses (Count)
system.cpu.l2cache.overallMisses::switch_cpus.mmu.dtb_walker       392963                       # number of overall misses (Count)
system.cpu.l2cache.overallMisses::switch_cpus.mmu.itb_walker        98356                       # number of overall misses (Count)
system.cpu.l2cache.overallMisses::switch_cpus.inst     13920509                       # number of overall misses (Count)
system.cpu.l2cache.overallMisses::switch_cpus.data     27479810                       # number of overall misses (Count)
system.cpu.l2cache.overallMisses::total      41891638                       # number of overall misses (Count)
system.cpu.l2cache.demandMissLatency::switch_cpus.mmu.dtb_walker  36709275940                       # number of demand (read+write) miss ticks (Tick)
system.cpu.l2cache.demandMissLatency::switch_cpus.mmu.itb_walker   9638410135                       # number of demand (read+write) miss ticks (Tick)
system.cpu.l2cache.demandMissLatency::switch_cpus.inst 903615048460                       # number of demand (read+write) miss ticks (Tick)
system.cpu.l2cache.demandMissLatency::switch_cpus.data 1913434727481                       # number of demand (read+write) miss ticks (Tick)
system.cpu.l2cache.demandMissLatency::total 2863397462016                       # number of demand (read+write) miss ticks (Tick)
system.cpu.l2cache.overallMissLatency::switch_cpus.mmu.dtb_walker  36709275940                       # number of overall miss ticks (Tick)
system.cpu.l2cache.overallMissLatency::switch_cpus.mmu.itb_walker   9638410135                       # number of overall miss ticks (Tick)
system.cpu.l2cache.overallMissLatency::switch_cpus.inst 903615048460                       # number of overall miss ticks (Tick)
system.cpu.l2cache.overallMissLatency::switch_cpus.data 1913434727481                       # number of overall miss ticks (Tick)
system.cpu.l2cache.overallMissLatency::total 2863397462016                       # number of overall miss ticks (Tick)
system.cpu.l2cache.demandAccesses::switch_cpus.mmu.dtb_walker     18486048                       # number of demand (read+write) accesses (Count)
system.cpu.l2cache.demandAccesses::switch_cpus.mmu.itb_walker       647107                       # number of demand (read+write) accesses (Count)
system.cpu.l2cache.demandAccesses::switch_cpus.inst     47209442                       # number of demand (read+write) accesses (Count)
system.cpu.l2cache.demandAccesses::switch_cpus.data    139335766                       # number of demand (read+write) accesses (Count)
system.cpu.l2cache.demandAccesses::total    205678363                       # number of demand (read+write) accesses (Count)
system.cpu.l2cache.overallAccesses::switch_cpus.mmu.dtb_walker     18486048                       # number of overall (read+write) accesses (Count)
system.cpu.l2cache.overallAccesses::switch_cpus.mmu.itb_walker       647107                       # number of overall (read+write) accesses (Count)
system.cpu.l2cache.overallAccesses::switch_cpus.inst     47209442                       # number of overall (read+write) accesses (Count)
system.cpu.l2cache.overallAccesses::switch_cpus.data    139335766                       # number of overall (read+write) accesses (Count)
system.cpu.l2cache.overallAccesses::total    205678363                       # number of overall (read+write) accesses (Count)
system.cpu.l2cache.demandMissRate::switch_cpus.mmu.dtb_walker     0.021257                       # miss rate for demand accesses (Ratio)
system.cpu.l2cache.demandMissRate::switch_cpus.mmu.itb_walker     0.151993                       # miss rate for demand accesses (Ratio)
system.cpu.l2cache.demandMissRate::switch_cpus.inst     0.294867                       # miss rate for demand accesses (Ratio)
system.cpu.l2cache.demandMissRate::switch_cpus.data     0.197220                       # miss rate for demand accesses (Ratio)
system.cpu.l2cache.demandMissRate::total     0.203675                       # miss rate for demand accesses (Ratio)
system.cpu.l2cache.overallMissRate::switch_cpus.mmu.dtb_walker     0.021257                       # miss rate for overall accesses (Ratio)
system.cpu.l2cache.overallMissRate::switch_cpus.mmu.itb_walker     0.151993                       # miss rate for overall accesses (Ratio)
system.cpu.l2cache.overallMissRate::switch_cpus.inst     0.294867                       # miss rate for overall accesses (Ratio)
system.cpu.l2cache.overallMissRate::switch_cpus.data     0.197220                       # miss rate for overall accesses (Ratio)
system.cpu.l2cache.overallMissRate::total     0.203675                       # miss rate for overall accesses (Ratio)
system.cpu.l2cache.demandAvgMissLatency::switch_cpus.mmu.dtb_walker 93416.621768                       # average overall miss latency in ticks ((Tick/Count))
system.cpu.l2cache.demandAvgMissLatency::switch_cpus.mmu.itb_walker 97995.141476                       # average overall miss latency in ticks ((Tick/Count))
system.cpu.l2cache.demandAvgMissLatency::switch_cpus.inst 64912.500575                       # average overall miss latency in ticks ((Tick/Count))
system.cpu.l2cache.demandAvgMissLatency::switch_cpus.data 69630.566131                       # average overall miss latency in ticks ((Tick/Count))
system.cpu.l2cache.demandAvgMissLatency::total 68352.482708                       # average overall miss latency in ticks ((Tick/Count))
system.cpu.l2cache.overallAvgMissLatency::switch_cpus.mmu.dtb_walker 93416.621768                       # average overall miss latency ((Tick/Count))
system.cpu.l2cache.overallAvgMissLatency::switch_cpus.mmu.itb_walker 97995.141476                       # average overall miss latency ((Tick/Count))
system.cpu.l2cache.overallAvgMissLatency::switch_cpus.inst 64912.500575                       # average overall miss latency ((Tick/Count))
system.cpu.l2cache.overallAvgMissLatency::switch_cpus.data 69630.566131                       # average overall miss latency ((Tick/Count))
system.cpu.l2cache.overallAvgMissLatency::total 68352.482708                       # average overall miss latency ((Tick/Count))
system.cpu.l2cache.blockedCycles::no_mshrs            0                       # number of cycles access was blocked (Cycle)
system.cpu.l2cache.blockedCycles::no_targets            0                       # number of cycles access was blocked (Cycle)
system.cpu.l2cache.blockedCauses::no_mshrs            0                       # number of times access was blocked (Count)
system.cpu.l2cache.blockedCauses::no_targets            0                       # number of times access was blocked (Count)
system.cpu.l2cache.avgBlocked::no_mshrs           nan                       # average number of cycles each access was blocked ((Cycle/Count))
system.cpu.l2cache.avgBlocked::no_targets          nan                       # average number of cycles each access was blocked ((Cycle/Count))
system.cpu.l2cache.writebacks::writebacks    185332549                       # number of writebacks (Count)
system.cpu.l2cache.writebacks::total        185332549                       # number of writebacks (Count)
system.cpu.l2cache.demandMshrHits::switch_cpus.mmu.dtb_walker            3                       # number of demand (read+write) MSHR hits (Count)
system.cpu.l2cache.demandMshrHits::switch_cpus.mmu.itb_walker         6366                       # number of demand (read+write) MSHR hits (Count)
system.cpu.l2cache.demandMshrHits::switch_cpus.inst           16                       # number of demand (read+write) MSHR hits (Count)
system.cpu.l2cache.demandMshrHits::switch_cpus.data           40                       # number of demand (read+write) MSHR hits (Count)
system.cpu.l2cache.demandMshrHits::total         6425                       # number of demand (read+write) MSHR hits (Count)
system.cpu.l2cache.overallMshrHits::switch_cpus.mmu.dtb_walker            3                       # number of overall MSHR hits (Count)
system.cpu.l2cache.overallMshrHits::switch_cpus.mmu.itb_walker         6366                       # number of overall MSHR hits (Count)
system.cpu.l2cache.overallMshrHits::switch_cpus.inst           16                       # number of overall MSHR hits (Count)
system.cpu.l2cache.overallMshrHits::switch_cpus.data           40                       # number of overall MSHR hits (Count)
system.cpu.l2cache.overallMshrHits::total         6425                       # number of overall MSHR hits (Count)
system.cpu.l2cache.demandMshrMisses::switch_cpus.mmu.dtb_walker       392960                       # number of demand (read+write) MSHR misses (Count)
system.cpu.l2cache.demandMshrMisses::switch_cpus.mmu.itb_walker        91990                       # number of demand (read+write) MSHR misses (Count)
system.cpu.l2cache.demandMshrMisses::switch_cpus.inst     13920493                       # number of demand (read+write) MSHR misses (Count)
system.cpu.l2cache.demandMshrMisses::switch_cpus.data     27479770                       # number of demand (read+write) MSHR misses (Count)
system.cpu.l2cache.demandMshrMisses::total     41885213                       # number of demand (read+write) MSHR misses (Count)
system.cpu.l2cache.overallMshrMisses::switch_cpus.mmu.dtb_walker       392960                       # number of overall MSHR misses (Count)
system.cpu.l2cache.overallMshrMisses::switch_cpus.mmu.itb_walker        91990                       # number of overall MSHR misses (Count)
system.cpu.l2cache.overallMshrMisses::switch_cpus.inst     13920493                       # number of overall MSHR misses (Count)
system.cpu.l2cache.overallMshrMisses::switch_cpus.data     27479770                       # number of overall MSHR misses (Count)
system.cpu.l2cache.overallMshrMisses::total     41885213                       # number of overall MSHR misses (Count)
system.cpu.l2cache.overallMshrUncacheable::switch_cpus.data       362897                       # number of overall MSHR uncacheable misses (Count)
system.cpu.l2cache.overallMshrUncacheable::total       362897                       # number of overall MSHR uncacheable misses (Count)
system.cpu.l2cache.demandMshrMissLatency::switch_cpus.mmu.dtb_walker  32779360942                       # number of demand (read+write) MSHR miss ticks (Tick)
system.cpu.l2cache.demandMshrMissLatency::switch_cpus.mmu.itb_walker   8502494695                       # number of demand (read+write) MSHR miss ticks (Tick)
system.cpu.l2cache.demandMshrMissLatency::switch_cpus.inst 764408952960                       # number of demand (read+write) MSHR miss ticks (Tick)
system.cpu.l2cache.demandMshrMissLatency::switch_cpus.data 1638635442481                       # number of demand (read+write) MSHR miss ticks (Tick)
system.cpu.l2cache.demandMshrMissLatency::total 2444326251078                       # number of demand (read+write) MSHR miss ticks (Tick)
system.cpu.l2cache.overallMshrMissLatency::switch_cpus.mmu.dtb_walker  32779360942                       # number of overall MSHR miss ticks (Tick)
system.cpu.l2cache.overallMshrMissLatency::switch_cpus.mmu.itb_walker   8502494695                       # number of overall MSHR miss ticks (Tick)
system.cpu.l2cache.overallMshrMissLatency::switch_cpus.inst 764408952960                       # number of overall MSHR miss ticks (Tick)
system.cpu.l2cache.overallMshrMissLatency::switch_cpus.data 1638635442481                       # number of overall MSHR miss ticks (Tick)
system.cpu.l2cache.overallMshrMissLatency::total 2444326251078                       # number of overall MSHR miss ticks (Tick)
system.cpu.l2cache.overallMshrUncacheableLatency::switch_cpus.data  17782282500                       # number of overall MSHR uncacheable ticks (Tick)
system.cpu.l2cache.overallMshrUncacheableLatency::total  17782282500                       # number of overall MSHR uncacheable ticks (Tick)
system.cpu.l2cache.demandMshrMissRate::switch_cpus.mmu.dtb_walker     0.021257                       # mshr miss ratio for demand accesses (Ratio)
system.cpu.l2cache.demandMshrMissRate::switch_cpus.mmu.itb_walker     0.142156                       # mshr miss ratio for demand accesses (Ratio)
system.cpu.l2cache.demandMshrMissRate::switch_cpus.inst     0.294867                       # mshr miss ratio for demand accesses (Ratio)
system.cpu.l2cache.demandMshrMissRate::switch_cpus.data     0.197220                       # mshr miss ratio for demand accesses (Ratio)
system.cpu.l2cache.demandMshrMissRate::total     0.203644                       # mshr miss ratio for demand accesses (Ratio)
system.cpu.l2cache.overallMshrMissRate::switch_cpus.mmu.dtb_walker     0.021257                       # mshr miss ratio for overall accesses (Ratio)
system.cpu.l2cache.overallMshrMissRate::switch_cpus.mmu.itb_walker     0.142156                       # mshr miss ratio for overall accesses (Ratio)
system.cpu.l2cache.overallMshrMissRate::switch_cpus.inst     0.294867                       # mshr miss ratio for overall accesses (Ratio)
system.cpu.l2cache.overallMshrMissRate::switch_cpus.data     0.197220                       # mshr miss ratio for overall accesses (Ratio)
system.cpu.l2cache.overallMshrMissRate::total     0.203644                       # mshr miss ratio for overall accesses (Ratio)
system.cpu.l2cache.demandAvgMshrMissLatency::switch_cpus.mmu.dtb_walker 83416.533342                       # average overall mshr miss latency ((Tick/Count))
system.cpu.l2cache.demandAvgMshrMissLatency::switch_cpus.mmu.itb_walker 92428.467170                       # average overall mshr miss latency ((Tick/Count))
system.cpu.l2cache.demandAvgMshrMissLatency::switch_cpus.inst 54912.491458                       # average overall mshr miss latency ((Tick/Count))
system.cpu.l2cache.demandAvgMshrMissLatency::switch_cpus.data 59630.609808                       # average overall mshr miss latency ((Tick/Count))
system.cpu.l2cache.demandAvgMshrMissLatency::total 58357.737158                       # average overall mshr miss latency ((Tick/Count))
system.cpu.l2cache.overallAvgMshrMissLatency::switch_cpus.mmu.dtb_walker 83416.533342                       # average overall mshr miss latency ((Tick/Count))
system.cpu.l2cache.overallAvgMshrMissLatency::switch_cpus.mmu.itb_walker 92428.467170                       # average overall mshr miss latency ((Tick/Count))
system.cpu.l2cache.overallAvgMshrMissLatency::switch_cpus.inst 54912.491458                       # average overall mshr miss latency ((Tick/Count))
system.cpu.l2cache.overallAvgMshrMissLatency::switch_cpus.data 59630.609808                       # average overall mshr miss latency ((Tick/Count))
system.cpu.l2cache.overallAvgMshrMissLatency::total 58357.737158                       # average overall mshr miss latency ((Tick/Count))
system.cpu.l2cache.overallAvgMshrUncacheableLatency::switch_cpus.data 49000.907971                       # average overall mshr uncacheable latency ((Tick/Count))
system.cpu.l2cache.overallAvgMshrUncacheableLatency::total 49000.907971                       # average overall mshr uncacheable latency ((Tick/Count))
system.cpu.l2cache.replacements             217655180                       # number of replacements (Count)
system.cpu.l2cache.CleanEvict.mshrMisses::writebacks       141690                       # number of CleanEvict MSHR misses (Count)
system.cpu.l2cache.CleanEvict.mshrMisses::total       141690                       # number of CleanEvict MSHR misses (Count)
system.cpu.l2cache.CleanEvict.mshrMissRate::writebacks          inf                       # mshr miss rate for CleanEvict accesses (Ratio)
system.cpu.l2cache.CleanEvict.mshrMissRate::total          inf                       # mshr miss rate for CleanEvict accesses (Ratio)
system.cpu.l2cache.InvalidateReq.hits::switch_cpus.data       632409                       # number of InvalidateReq hits (Count)
system.cpu.l2cache.InvalidateReq.hits::total       632409                       # number of InvalidateReq hits (Count)
system.cpu.l2cache.InvalidateReq.misses::switch_cpus.data    169826083                       # number of InvalidateReq misses (Count)
system.cpu.l2cache.InvalidateReq.misses::total    169826083                       # number of InvalidateReq misses (Count)
system.cpu.l2cache.InvalidateReq.missLatency::switch_cpus.data      5897500                       # number of InvalidateReq miss ticks (Tick)
system.cpu.l2cache.InvalidateReq.missLatency::total      5897500                       # number of InvalidateReq miss ticks (Tick)
system.cpu.l2cache.InvalidateReq.accesses::switch_cpus.data    170458492                       # number of InvalidateReq accesses(hits+misses) (Count)
system.cpu.l2cache.InvalidateReq.accesses::total    170458492                       # number of InvalidateReq accesses(hits+misses) (Count)
system.cpu.l2cache.InvalidateReq.missRate::switch_cpus.data     0.996290                       # miss rate for InvalidateReq accesses (Ratio)
system.cpu.l2cache.InvalidateReq.missRate::total     0.996290                       # miss rate for InvalidateReq accesses (Ratio)
system.cpu.l2cache.InvalidateReq.avgMissLatency::switch_cpus.data     0.034727                       # average InvalidateReq miss latency ((Tick/Count))
system.cpu.l2cache.InvalidateReq.avgMissLatency::total     0.034727                       # average InvalidateReq miss latency ((Tick/Count))
system.cpu.l2cache.InvalidateReq.mshrMisses::switch_cpus.data    169826083                       # number of InvalidateReq MSHR misses (Count)
system.cpu.l2cache.InvalidateReq.mshrMisses::total    169826083                       # number of InvalidateReq MSHR misses (Count)
system.cpu.l2cache.InvalidateReq.mshrMissLatency::switch_cpus.data 4679962645000                       # number of InvalidateReq MSHR miss ticks (Tick)
system.cpu.l2cache.InvalidateReq.mshrMissLatency::total 4679962645000                       # number of InvalidateReq MSHR miss ticks (Tick)
system.cpu.l2cache.InvalidateReq.mshrMissRate::switch_cpus.data     0.996290                       # mshr miss rate for InvalidateReq accesses (Ratio)
system.cpu.l2cache.InvalidateReq.mshrMissRate::total     0.996290                       # mshr miss rate for InvalidateReq accesses (Ratio)
system.cpu.l2cache.InvalidateReq.avgMshrMissLatency::switch_cpus.data 27557.384368                       # average InvalidateReq mshr miss latency ((Tick/Count))
system.cpu.l2cache.InvalidateReq.avgMshrMissLatency::total 27557.384368                       # average InvalidateReq mshr miss latency ((Tick/Count))
system.cpu.l2cache.ReadCleanReq.hits::switch_cpus.inst     33288933                       # number of ReadCleanReq hits (Count)
system.cpu.l2cache.ReadCleanReq.hits::total     33288933                       # number of ReadCleanReq hits (Count)
system.cpu.l2cache.ReadCleanReq.misses::switch_cpus.inst     13920509                       # number of ReadCleanReq misses (Count)
system.cpu.l2cache.ReadCleanReq.misses::total     13920509                       # number of ReadCleanReq misses (Count)
system.cpu.l2cache.ReadCleanReq.missLatency::switch_cpus.inst 903615048460                       # number of ReadCleanReq miss ticks (Tick)
system.cpu.l2cache.ReadCleanReq.missLatency::total 903615048460                       # number of ReadCleanReq miss ticks (Tick)
system.cpu.l2cache.ReadCleanReq.accesses::switch_cpus.inst     47209442                       # number of ReadCleanReq accesses(hits+misses) (Count)
system.cpu.l2cache.ReadCleanReq.accesses::total     47209442                       # number of ReadCleanReq accesses(hits+misses) (Count)
system.cpu.l2cache.ReadCleanReq.missRate::switch_cpus.inst     0.294867                       # miss rate for ReadCleanReq accesses (Ratio)
system.cpu.l2cache.ReadCleanReq.missRate::total     0.294867                       # miss rate for ReadCleanReq accesses (Ratio)
system.cpu.l2cache.ReadCleanReq.avgMissLatency::switch_cpus.inst 64912.500575                       # average ReadCleanReq miss latency ((Tick/Count))
system.cpu.l2cache.ReadCleanReq.avgMissLatency::total 64912.500575                       # average ReadCleanReq miss latency ((Tick/Count))
system.cpu.l2cache.ReadCleanReq.mshrHits::switch_cpus.inst           16                       # number of ReadCleanReq MSHR hits (Count)
system.cpu.l2cache.ReadCleanReq.mshrHits::total           16                       # number of ReadCleanReq MSHR hits (Count)
system.cpu.l2cache.ReadCleanReq.mshrMisses::switch_cpus.inst     13920493                       # number of ReadCleanReq MSHR misses (Count)
system.cpu.l2cache.ReadCleanReq.mshrMisses::total     13920493                       # number of ReadCleanReq MSHR misses (Count)
system.cpu.l2cache.ReadCleanReq.mshrMissLatency::switch_cpus.inst 764408952960                       # number of ReadCleanReq MSHR miss ticks (Tick)
system.cpu.l2cache.ReadCleanReq.mshrMissLatency::total 764408952960                       # number of ReadCleanReq MSHR miss ticks (Tick)
system.cpu.l2cache.ReadCleanReq.mshrMissRate::switch_cpus.inst     0.294867                       # mshr miss rate for ReadCleanReq accesses (Ratio)
system.cpu.l2cache.ReadCleanReq.mshrMissRate::total     0.294867                       # mshr miss rate for ReadCleanReq accesses (Ratio)
system.cpu.l2cache.ReadCleanReq.avgMshrMissLatency::switch_cpus.inst 54912.491458                       # average ReadCleanReq mshr miss latency ((Tick/Count))
system.cpu.l2cache.ReadCleanReq.avgMshrMissLatency::total 54912.491458                       # average ReadCleanReq mshr miss latency ((Tick/Count))
system.cpu.l2cache.ReadExReq.hits::switch_cpus.data     73455865                       # number of ReadExReq hits (Count)
system.cpu.l2cache.ReadExReq.hits::total     73455865                       # number of ReadExReq hits (Count)
system.cpu.l2cache.ReadExReq.misses::switch_cpus.data      9312909                       # number of ReadExReq misses (Count)
system.cpu.l2cache.ReadExReq.misses::total      9312909                       # number of ReadExReq misses (Count)
system.cpu.l2cache.ReadExReq.missLatency::switch_cpus.data 602945678498                       # number of ReadExReq miss ticks (Tick)
system.cpu.l2cache.ReadExReq.missLatency::total 602945678498                       # number of ReadExReq miss ticks (Tick)
system.cpu.l2cache.ReadExReq.accesses::switch_cpus.data     82768774                       # number of ReadExReq accesses(hits+misses) (Count)
system.cpu.l2cache.ReadExReq.accesses::total     82768774                       # number of ReadExReq accesses(hits+misses) (Count)
system.cpu.l2cache.ReadExReq.missRate::switch_cpus.data     0.112517                       # miss rate for ReadExReq accesses (Ratio)
system.cpu.l2cache.ReadExReq.missRate::total     0.112517                       # miss rate for ReadExReq accesses (Ratio)
system.cpu.l2cache.ReadExReq.avgMissLatency::switch_cpus.data 64743.001193                       # average ReadExReq miss latency ((Tick/Count))
system.cpu.l2cache.ReadExReq.avgMissLatency::total 64743.001193                       # average ReadExReq miss latency ((Tick/Count))
system.cpu.l2cache.ReadExReq.mshrMisses::switch_cpus.data      9312909                       # number of ReadExReq MSHR misses (Count)
system.cpu.l2cache.ReadExReq.mshrMisses::total      9312909                       # number of ReadExReq MSHR misses (Count)
system.cpu.l2cache.ReadExReq.mshrMissLatency::switch_cpus.data 509816588498                       # number of ReadExReq MSHR miss ticks (Tick)
system.cpu.l2cache.ReadExReq.mshrMissLatency::total 509816588498                       # number of ReadExReq MSHR miss ticks (Tick)
system.cpu.l2cache.ReadExReq.mshrMissRate::switch_cpus.data     0.112517                       # mshr miss rate for ReadExReq accesses (Ratio)
system.cpu.l2cache.ReadExReq.mshrMissRate::total     0.112517                       # mshr miss rate for ReadExReq accesses (Ratio)
system.cpu.l2cache.ReadExReq.avgMshrMissLatency::switch_cpus.data 54743.001193                       # average ReadExReq mshr miss latency ((Tick/Count))
system.cpu.l2cache.ReadExReq.avgMshrMissLatency::total 54743.001193                       # average ReadExReq mshr miss latency ((Tick/Count))
system.cpu.l2cache.ReadReq.hits::switch_cpus.mmu.dtb_walker     18093085                       # number of ReadReq hits (Count)
system.cpu.l2cache.ReadReq.hits::switch_cpus.mmu.itb_walker       548751                       # number of ReadReq hits (Count)
system.cpu.l2cache.ReadReq.hits::total       18641836                       # number of ReadReq hits (Count)
system.cpu.l2cache.ReadReq.misses::switch_cpus.mmu.dtb_walker       392963                       # number of ReadReq misses (Count)
system.cpu.l2cache.ReadReq.misses::switch_cpus.mmu.itb_walker        98356                       # number of ReadReq misses (Count)
system.cpu.l2cache.ReadReq.misses::total       491319                       # number of ReadReq misses (Count)
system.cpu.l2cache.ReadReq.missLatency::switch_cpus.mmu.dtb_walker  36709275940                       # number of ReadReq miss ticks (Tick)
system.cpu.l2cache.ReadReq.missLatency::switch_cpus.mmu.itb_walker   9638410135                       # number of ReadReq miss ticks (Tick)
system.cpu.l2cache.ReadReq.missLatency::total  46347686075                       # number of ReadReq miss ticks (Tick)
system.cpu.l2cache.ReadReq.accesses::switch_cpus.mmu.dtb_walker     18486048                       # number of ReadReq accesses(hits+misses) (Count)
system.cpu.l2cache.ReadReq.accesses::switch_cpus.mmu.itb_walker       647107                       # number of ReadReq accesses(hits+misses) (Count)
system.cpu.l2cache.ReadReq.accesses::total     19133155                       # number of ReadReq accesses(hits+misses) (Count)
system.cpu.l2cache.ReadReq.missRate::switch_cpus.mmu.dtb_walker     0.021257                       # miss rate for ReadReq accesses (Ratio)
system.cpu.l2cache.ReadReq.missRate::switch_cpus.mmu.itb_walker     0.151993                       # miss rate for ReadReq accesses (Ratio)
system.cpu.l2cache.ReadReq.missRate::total     0.025679                       # miss rate for ReadReq accesses (Ratio)
system.cpu.l2cache.ReadReq.avgMissLatency::switch_cpus.mmu.dtb_walker 93416.621768                       # average ReadReq miss latency ((Tick/Count))
system.cpu.l2cache.ReadReq.avgMissLatency::switch_cpus.mmu.itb_walker 97995.141476                       # average ReadReq miss latency ((Tick/Count))
system.cpu.l2cache.ReadReq.avgMissLatency::total 94333.184906                       # average ReadReq miss latency ((Tick/Count))
system.cpu.l2cache.ReadReq.mshrHits::switch_cpus.mmu.dtb_walker            3                       # number of ReadReq MSHR hits (Count)
system.cpu.l2cache.ReadReq.mshrHits::switch_cpus.mmu.itb_walker         6366                       # number of ReadReq MSHR hits (Count)
system.cpu.l2cache.ReadReq.mshrHits::total         6369                       # number of ReadReq MSHR hits (Count)
system.cpu.l2cache.ReadReq.mshrMisses::switch_cpus.mmu.dtb_walker       392960                       # number of ReadReq MSHR misses (Count)
system.cpu.l2cache.ReadReq.mshrMisses::switch_cpus.mmu.itb_walker        91990                       # number of ReadReq MSHR misses (Count)
system.cpu.l2cache.ReadReq.mshrMisses::total       484950                       # number of ReadReq MSHR misses (Count)
system.cpu.l2cache.ReadReq.mshrUncacheable::switch_cpus.data       348162                       # number of ReadReq MSHR uncacheable (Count)
system.cpu.l2cache.ReadReq.mshrUncacheable::total       348162                       # number of ReadReq MSHR uncacheable (Count)
system.cpu.l2cache.ReadReq.mshrMissLatency::switch_cpus.mmu.dtb_walker  32779360942                       # number of ReadReq MSHR miss ticks (Tick)
system.cpu.l2cache.ReadReq.mshrMissLatency::switch_cpus.mmu.itb_walker   8502494695                       # number of ReadReq MSHR miss ticks (Tick)
system.cpu.l2cache.ReadReq.mshrMissLatency::total  41281855637                       # number of ReadReq MSHR miss ticks (Tick)
system.cpu.l2cache.ReadReq.mshrUncacheableLatency::switch_cpus.data  17782282500                       # number of ReadReq MSHR uncacheable ticks (Tick)
system.cpu.l2cache.ReadReq.mshrUncacheableLatency::total  17782282500                       # number of ReadReq MSHR uncacheable ticks (Tick)
system.cpu.l2cache.ReadReq.mshrMissRate::switch_cpus.mmu.dtb_walker     0.021257                       # mshr miss rate for ReadReq accesses (Ratio)
system.cpu.l2cache.ReadReq.mshrMissRate::switch_cpus.mmu.itb_walker     0.142156                       # mshr miss rate for ReadReq accesses (Ratio)
system.cpu.l2cache.ReadReq.mshrMissRate::total     0.025346                       # mshr miss rate for ReadReq accesses (Ratio)
system.cpu.l2cache.ReadReq.avgMshrMissLatency::switch_cpus.mmu.dtb_walker 83416.533342                       # average ReadReq mshr miss latency ((Tick/Count))
system.cpu.l2cache.ReadReq.avgMshrMissLatency::switch_cpus.mmu.itb_walker 92428.467170                       # average ReadReq mshr miss latency ((Tick/Count))
system.cpu.l2cache.ReadReq.avgMshrMissLatency::total 85126.003994                       # average ReadReq mshr miss latency ((Tick/Count))
system.cpu.l2cache.ReadReq.avgMshrUncacheableLatency::switch_cpus.data 51074.736760                       # average ReadReq mshr uncacheable latency ((Tick/Count))
system.cpu.l2cache.ReadReq.avgMshrUncacheableLatency::total 51074.736760                       # average ReadReq mshr uncacheable latency ((Tick/Count))
system.cpu.l2cache.ReadSharedReq.hits::switch_cpus.data     38400091                       # number of ReadSharedReq hits (Count)
system.cpu.l2cache.ReadSharedReq.hits::total     38400091                       # number of ReadSharedReq hits (Count)
system.cpu.l2cache.ReadSharedReq.misses::switch_cpus.data     18166901                       # number of ReadSharedReq misses (Count)
system.cpu.l2cache.ReadSharedReq.misses::total     18166901                       # number of ReadSharedReq misses (Count)
system.cpu.l2cache.ReadSharedReq.missLatency::switch_cpus.data 1310489048983                       # number of ReadSharedReq miss ticks (Tick)
system.cpu.l2cache.ReadSharedReq.missLatency::total 1310489048983                       # number of ReadSharedReq miss ticks (Tick)
system.cpu.l2cache.ReadSharedReq.accesses::switch_cpus.data     56566992                       # number of ReadSharedReq accesses(hits+misses) (Count)
system.cpu.l2cache.ReadSharedReq.accesses::total     56566992                       # number of ReadSharedReq accesses(hits+misses) (Count)
system.cpu.l2cache.ReadSharedReq.missRate::switch_cpus.data     0.321157                       # miss rate for ReadSharedReq accesses (Ratio)
system.cpu.l2cache.ReadSharedReq.missRate::total     0.321157                       # miss rate for ReadSharedReq accesses (Ratio)
system.cpu.l2cache.ReadSharedReq.avgMissLatency::switch_cpus.data 72136.081381                       # average ReadSharedReq miss latency ((Tick/Count))
system.cpu.l2cache.ReadSharedReq.avgMissLatency::total 72136.081381                       # average ReadSharedReq miss latency ((Tick/Count))
system.cpu.l2cache.ReadSharedReq.mshrHits::switch_cpus.data           40                       # number of ReadSharedReq MSHR hits (Count)
system.cpu.l2cache.ReadSharedReq.mshrHits::total           40                       # number of ReadSharedReq MSHR hits (Count)
system.cpu.l2cache.ReadSharedReq.mshrMisses::switch_cpus.data     18166861                       # number of ReadSharedReq MSHR misses (Count)
[...]
system.switch_cpus.mmu.itb_walker.requestOrigin_Completed::Data            0                       # Table walker requests started/completed, data/inst (Count)
system.switch_cpus.mmu.itb_walker.requestOrigin_Completed::Inst       138753                       # Table walker requests started/completed, data/inst (Count)
system.switch_cpus.mmu.itb_walker.requestOrigin_Completed::total       138753                       # Table walker requests started/completed, data/inst (Count)
system.switch_cpus.mmu.itb_walker.requestOrigin::total       871711                       # Table walker requests started/completed, data/inst (Count)
system.switch_cpus.mmu.itb_walker.power_state.pwrStateResidencyTicks::UNDEFINED 226217850930000                       # Cumulative time (in ticks) in various power states (Tick)
system.switch_cpus.mmu.l2_shared.partialHits      6134521                       # partial translation hits (Count)
system.switch_cpus.mmu.l2_shared.instHits      5416454                       # Inst hits (Count)
system.switch_cpus.mmu.l2_shared.instMisses       571896                       # Inst misses (Count)
system.switch_cpus.mmu.l2_shared.readHits     29328650                       # Read hits (Count)
system.switch_cpus.mmu.l2_shared.readMisses     19123788                       # Read misses (Count)
system.switch_cpus.mmu.l2_shared.writeHits      9683486                       # Write hits (Count)
system.switch_cpus.mmu.l2_shared.writeMisses      1440947                       # Write misses (Count)
system.switch_cpus.mmu.l2_shared.inserts       646147                       # Number of times an entry is inserted into the TLB (Count)
system.switch_cpus.mmu.l2_shared.flushTlb            2                       # Number of times complete TLB was flushed (Count)
system.switch_cpus.mmu.l2_shared.flushTlbMva            0                       # Number of times TLB was flushed by MVA (Count)
system.switch_cpus.mmu.l2_shared.flushTlbMvaAsid         2169                       # Number of times TLB was flushed by MVA & ASID (Count)
system.switch_cpus.mmu.l2_shared.flushTlbAsid           26                       # Number of times TLB was flushed by ASID (Count)
system.switch_cpus.mmu.l2_shared.flushedEntries        14295                       # Number of entries that have been flushed from TLB (Count)
system.switch_cpus.mmu.l2_shared.readAccesses     48452438                       # Read accesses (Count)
system.switch_cpus.mmu.l2_shared.writeAccesses     11124433                       # Write accesses (Count)
system.switch_cpus.mmu.l2_shared.instAccesses      5988350                       # Inst accesses (Count)
system.switch_cpus.mmu.l2_shared.hits        44428590                       # Total TLB (inst and data) hits (Count)
system.switch_cpus.mmu.l2_shared.misses      21136631                       # Total TLB (inst and data) misses (Count)
system.switch_cpus.mmu.l2_shared.accesses     65565221                       # Total TLB (inst and data) accesses (Count)
system.switch_cpus.mmu.stage2_dtb.readHits            0                       # Read hits (Count)
system.switch_cpus.mmu.stage2_dtb.readMisses            0                       # Read misses (Count)
system.switch_cpus.mmu.stage2_dtb.writeHits            0                       # Write hits (Count)
system.switch_cpus.mmu.stage2_dtb.writeMisses            0                       # Write misses (Count)
system.switch_cpus.mmu.stage2_dtb.inserts            0                       # Number of times an entry is inserted into the TLB (Count)
system.switch_cpus.mmu.stage2_dtb.flushTlb            2                       # Number of times complete TLB was flushed (Count)
system.switch_cpus.mmu.stage2_dtb.flushTlbMva            0                       # Number of times TLB was flushed by MVA (Count)
system.switch_cpus.mmu.stage2_dtb.flushTlbMvaAsid            0                       # Number of times TLB was flushed by MVA & ASID (Count)
system.switch_cpus.mmu.stage2_dtb.flushTlbAsid            0                       # Number of times TLB was flushed by ASID (Count)
system.switch_cpus.mmu.stage2_dtb.flushedEntries            0                       # Number of entries that have been flushed from TLB (Count)
system.switch_cpus.mmu.stage2_dtb.readAccesses            0                       # Read accesses (Count)
system.switch_cpus.mmu.stage2_dtb.writeAccesses            0                       # Write accesses (Count)
system.switch_cpus.mmu.stage2_dtb.hits              0                       # Total TLB (inst and data) hits (Count)
system.switch_cpus.mmu.stage2_dtb.misses            0                       # Total TLB (inst and data) misses (Count)
system.switch_cpus.mmu.stage2_dtb.accesses            0                       # Total TLB (inst and data) accesses (Count)
system.switch_cpus.mmu.stage2_dtb_walker.walks            0                       # Table walker walks requested (Count)
system.switch_cpus.mmu.stage2_dtb_walker.requestOrigin_Requested::Data            0                       # Table walker requests started/completed, data/inst (Count)
system.switch_cpus.mmu.stage2_dtb_walker.requestOrigin_Requested::Inst            0                       # Table walker requests started/completed, data/inst (Count)
system.switch_cpus.mmu.stage2_dtb_walker.requestOrigin_Requested::total            0                       # Table walker requests started/completed, data/inst (Count)
system.switch_cpus.mmu.stage2_dtb_walker.requestOrigin_Completed::Data            0                       # Table walker requests started/completed, data/inst (Count)
system.switch_cpus.mmu.stage2_dtb_walker.requestOrigin_Completed::Inst            0                       # Table walker requests started/completed, data/inst (Count)
system.switch_cpus.mmu.stage2_dtb_walker.requestOrigin_Completed::total            0                       # Table walker requests started/completed, data/inst (Count)
system.switch_cpus.mmu.stage2_dtb_walker.requestOrigin::total            0                       # Table walker requests started/completed, data/inst (Count)
system.switch_cpus.mmu.stage2_dtb_walker.power_state.pwrStateResidencyTicks::UNDEFINED 226217850930000                       # Cumulative time (in ticks) in various power states (Tick)
system.switch_cpus.mmu.stage2_itb.instHits            0                       # Inst hits (Count)
system.switch_cpus.mmu.stage2_itb.instMisses            0                       # Inst misses (Count)
system.switch_cpus.mmu.stage2_itb.inserts            0                       # Number of times an entry is inserted into the TLB (Count)
system.switch_cpus.mmu.stage2_itb.flushTlb            2                       # Number of times complete TLB was flushed (Count)
system.switch_cpus.mmu.stage2_itb.flushTlbMva            0                       # Number of times TLB was flushed by MVA (Count)
system.switch_cpus.mmu.stage2_itb.flushTlbMvaAsid            0                       # Number of times TLB was flushed by MVA & ASID (Count)
system.switch_cpus.mmu.stage2_itb.flushTlbAsid            0                       # Number of times TLB was flushed by ASID (Count)
system.switch_cpus.mmu.stage2_itb.flushedEntries            0                       # Number of entries that have been flushed from TLB (Count)
system.switch_cpus.mmu.stage2_itb.instAccesses            0                       # Inst accesses (Count)
system.switch_cpus.mmu.stage2_itb.hits              0                       # Total TLB (inst and data) hits (Count)
system.switch_cpus.mmu.stage2_itb.misses            0                       # Total TLB (inst and data) misses (Count)
system.switch_cpus.mmu.stage2_itb.accesses            0                       # Total TLB (inst and data) accesses (Count)
system.switch_cpus.mmu.stage2_itb_walker.walks            0                       # Table walker walks requested (Count)
system.switch_cpus.mmu.stage2_itb_walker.requestOrigin_Requested::Data            0                       # Table walker requests started/completed, data/inst (Count)
system.switch_cpus.mmu.stage2_itb_walker.requestOrigin_Requested::Inst            0                       # Table walker requests started/completed, data/inst (Count)
system.switch_cpus.mmu.stage2_itb_walker.requestOrigin_Requested::total            0                       # Table walker requests started/completed, data/inst (Count)
system.switch_cpus.mmu.stage2_itb_walker.requestOrigin_Completed::Data            0                       # Table walker requests started/completed, data/inst (Count)
system.switch_cpus.mmu.stage2_itb_walker.requestOrigin_Completed::Inst            0                       # Table walker requests started/completed, data/inst (Count)
system.switch_cpus.mmu.stage2_itb_walker.requestOrigin_Completed::total            0                       # Table walker requests started/completed, data/inst (Count)
system.switch_cpus.mmu.stage2_itb_walker.requestOrigin::total            0                       # Table walker requests started/completed, data/inst (Count)
system.switch_cpus.mmu.stage2_itb_walker.power_state.pwrStateResidencyTicks::UNDEFINED 226217850930000                       # Cumulative time (in ticks) in various power states (Tick)
system.switch_cpus.power_state.numTransitions           45                       # Number of power state transitions (Count)
system.switch_cpus.power_state.ticksClkGated::samples           22                       # Distribution of time spent in the clock gated state (Tick)
system.switch_cpus.power_state.ticksClkGated::mean  57026435470                       # Distribution of time spent in the clock gated state (Tick)
system.switch_cpus.power_state.ticksClkGated::stdev 103380190137.068832                       # Distribution of time spent in the clock gated state (Tick)
system.switch_cpus.power_state.ticksClkGated::1000-5e+10           18     81.82%     81.82% # Distribution of time spent in the clock gated state (Tick)
system.switch_cpus.power_state.ticksClkGated::5e+10-1e+11            1      4.55%     86.36% # Distribution of time spent in the clock gated state (Tick)
system.switch_cpus.power_state.ticksClkGated::1.5e+11-2e+11            1      4.55%     90.91% # Distribution of time spent in the clock gated state (Tick)
system.switch_cpus.power_state.ticksClkGated::2.5e+11-3e+11            1      4.55%     95.45% # Distribution of time spent in the clock gated state (Tick)
system.switch_cpus.power_state.ticksClkGated::4e+11-4.5e+11            1      4.55%    100.00% # Distribution of time spent in the clock gated state (Tick)
system.switch_cpus.power_state.ticksClkGated::min_value    933112484                       # Distribution of time spent in the clock gated state (Tick)
system.switch_cpus.power_state.ticksClkGated::max_value 415977087088                       # Distribution of time spent in the clock gated state (Tick)
system.switch_cpus.power_state.ticksClkGated::total           22                       # Distribution of time spent in the clock gated state (Tick)
system.switch_cpus.power_state.pwrStateResidencyTicks::ON 6621259240160                       # Cumulative time (in ticks) in various power states (Tick)
system.switch_cpus.power_state.pwrStateResidencyTicks::CLK_GATED 1254581580340                       # Cumulative time (in ticks) in various power states (Tick)
system.switch_cpus.power_state.pwrStateResidencyTicks::OFF 218342010109500                       # Cumulative time (in ticks) in various power states (Tick)
system.switch_cpus.rename.squashCycles      150681514                       # Number of cycles rename is squashing (Cycle)
system.switch_cpus.rename.idleCycles       2524672154                       # Number of cycles rename is idle (Cycle)
system.switch_cpus.rename.blockCycles      3635108795                       # Number of cycles rename is blocking (Cycle)
system.switch_cpus.rename.serializeStallCycles    585630681                       # count of cycles rename stalled for serializing inst (Cycle)
system.switch_cpus.rename.runCycles        2479001908                       # Number of cycles rename is running (Cycle)
system.switch_cpus.rename.unblockCycles    2910513172                       # Number of cycles rename is unblocking (Cycle)
system.switch_cpus.rename.renamedInsts    15830734502                       # Number of instructions processed by rename (Count)
system.switch_cpus.rename.ROBFullEvents      14856597                       # Number of times rename has blocked due to ROB full (Count)
system.switch_cpus.rename.IQFullEvents      451064121                       # Number of times rename has blocked due to IQ full (Count)
system.switch_cpus.rename.LQFullEvents      382028661                       # Number of times rename has blocked due to LQ full (Count)
system.switch_cpus.rename.SQFullEvents     2036189343                       # Number of times rename has blocked due to SQ full (Count)
system.switch_cpus.rename.renamedOperands  14328688992                       # Number of destination operands rename has renamed (Count)
system.switch_cpus.rename.lookups         21260354219                       # Number of register rename lookups that rename has made (Count)
system.switch_cpus.rename.intLookups      15661183293                       # Number of integer rename lookups (Count)
system.switch_cpus.rename.vecLookups         58282101                       # Number of vector rename lookups (Count)
system.switch_cpus.rename.vecPredLookups           12                       # Number of vector predicate rename lookups (Count)
system.switch_cpus.rename.committedMaps    9990007347                       # Number of HB maps that are committed (Count)
system.switch_cpus.rename.undoneMaps       4338681645                       # Number of HB maps that are undone due to squashing (Count)
system.switch_cpus.rename.serializing        21906693                       # count of serializing insts renamed (Count)
system.switch_cpus.rename.tempSerializing      3518933                       # count of temporary serializing insts renamed (Count)
system.switch_cpus.rename.skidInsts        2065473312                       # count of insts added to the skid buffer (Count)
system.switch_cpus.rob.reads              26007856995                       # The number of ROB reads (Count)
system.switch_cpus.rob.writes             30986477673                       # The number of ROB writes (Count)
system.switch_cpus.thread_0.numInsts       9065873846                       # Number of Instructions committed (Count)
system.switch_cpus.thread_0.numOps         9880219140                       # Number of Ops committed (Count)
system.switch_cpus.thread_0.numMemRefs              0                       # Number of Memory References (Count)
system.tollcbus.transDist::ReadReq            1474553                       # Transaction distribution (Count)
system.tollcbus.transDist::ReadResp          34046857                       # Transaction distribution (Count)
system.tollcbus.transDist::WriteReq             89427                       # Transaction distribution (Count)
system.tollcbus.transDist::WriteResp            89427                       # Transaction distribution (Count)
system.tollcbus.transDist::WritebackDirty    218935709                       # Transaction distribution (Count)
system.tollcbus.transDist::CleanEvict        38439765                       # Transaction distribution (Count)
system.tollcbus.transDist::UpgradeReq           10777                       # Transaction distribution (Count)
system.tollcbus.transDist::UpgradeResp          10777                       # Transaction distribution (Count)
system.tollcbus.transDist::ReadExReq          9311381                       # Transaction distribution (Count)
system.tollcbus.transDist::ReadExResp         9311381                       # Transaction distribution (Count)
system.tollcbus.transDist::ReadSharedReq     32572304                       # Transaction distribution (Count)
system.tollcbus.transDist::InvalidateReq    169826083                       # Transaction distribution (Count)
system.tollcbus.transDist::InvalidateResp    169826083                       # Transaction distribution (Count)
system.tollcbus.pktCount_system.cpu.l2cache.mem_side_port::system.llc.cpu_side_port    638265987                       # Packet count per connected requestor and responder (Count)
system.tollcbus.pktSize_system.cpu.l2cache.mem_side_port::system.llc.cpu_side_port  14547901044                       # Cumulative packet size per connected requestor and responder (Byte)
system.tollcbus.snoops                       45678537                       # Total snoops (Count)
system.tollcbus.snoopTraffic               2150602240                       # Total snoop traffic (Byte)
system.tollcbus.snoopFanout::samples        257761979                       # Request fanout histogram (Count)
system.tollcbus.snoopFanout::mean            0.005414                       # Request fanout histogram (Count)
system.tollcbus.snoopFanout::stdev           0.073379                       # Request fanout histogram (Count)
system.tollcbus.snoopFanout::underflows             0      0.00%      0.00% # Request fanout histogram (Count)
system.tollcbus.snoopFanout::0              256366504     99.46%     99.46% # Request fanout histogram (Count)
system.tollcbus.snoopFanout::1                1395475      0.54%    100.00% # Request fanout histogram (Count)
system.tollcbus.snoopFanout::overflows              0      0.00%    100.00% # Request fanout histogram (Count)
system.tollcbus.snoopFanout::min_value              0                       # Request fanout histogram (Count)
system.tollcbus.snoopFanout::max_value              1                       # Request fanout histogram (Count)
system.tollcbus.snoopFanout::total          257761979                       # Request fanout histogram (Count)
system.tollcbus.power_state.pwrStateResidencyTicks::UNDEFINED 226217850930000                       # Cumulative time (in ticks) in various power states (Tick)
system.tollcbus.reqLayer0.occupancy      397235194329                       # Layer occupancy (ticks) (Tick)
system.tollcbus.reqLayer0.utilization             0.0                       # Layer utilization (Ratio)
system.tollcbus.respLayer0.occupancy     148099487000                       # Layer occupancy (ticks) (Tick)
system.tollcbus.respLayer0.utilization            0.0                       # Layer utilization (Ratio)
system.tollcbus.snoop_filter.totRequests    423422198                       # Total number of requests made to the snoop filter. (Count)
system.tollcbus.snoop_filter.hitSingleRequests    211723614                       # Number of requests hitting in the snoop filter with a single holder of the requested data. (Count)
system.tollcbus.snoop_filter.hitMultiRequests            0                       # Number of requests hitting in the snoop filter with multiple (>1) holders of the requested data. (Count)
system.tollcbus.snoop_filter.totSnoops        1395475                       # Total number of snoops made to the snoop filter. (Count)
system.tollcbus.snoop_filter.hitSingleSnoops      1395475                       # Number of snoops hitting in the snoop filter with a single holder of the requested data. (Count)
system.tollcbus.snoop_filter.hitMultiSnoops            0                       # Number of snoops hitting in the snoop filter with multiple (>1) holders of the requested data. (Count)
system.voltage_domain.voltage                       1                       # Voltage in Volts (Volt)
system.workload.inst.arm                            0                       # number of arm instructions executed (Count)
system.workload.inst.quiesce                       22                       # number of quiesce instructions executed (Count)

---------- End Simulation Statistics   ----------
