
---------- Begin Simulation Statistics ----------
simSeconds                                  23.892682                       # Number of seconds simulated (Second)
simTicks                                 23892681666500                       # Number of ticks simulated (Tick)
finalTick                                23892681666500                       # Number of ticks from beginning of simulation (restored from checkpoints and never reset) (Tick)
simFreq                                  1000000000000                       # The number of ticks per simulated second ((Tick/Second))
hostSeconds                                  37948.96                       # Real time elapsed on the host (Second)
hostTickRate                                629600513                       # The number of ticks simulated per host second (ticks/s) ((Tick/Second))
hostMemory                                   18072684                       # Number of bytes of host memory used (Byte)
simInsts                                   4766751695                       # Number of instructions simulated (Count)
simOps                                     5286843667                       # Number of ops (including micro ops) simulated (Count)
hostInstRate                                   125610                       # Simulator instruction rate (inst/s) ((Count/Second))
hostOpRate                                     139315                       # Simulator op (including micro ops) rate (op/s) ((Count/Second))
system.bridge.power_state.pwrStateResidencyTicks::UNDEFINED 23892681666500                       # Cumulative time (in ticks) in various power states (Tick)
system.clk_domain.clock                          1000                       # Clock period in ticks (Tick)
system.cpu.numCycles                       1627038490                       # Number of cpu cycles simulated (Cycle)
system.cpu.numWorkItemsStarted                      0                       # Number of work items this cpu started (Count)
system.cpu.numWorkItemsCompleted                    0                       # Number of work items this cpu completed (Count)
system.cpu.committedInsts                   739694188                       # Number of instructions committed (Count)
system.cpu.numVMExits                          151281                       # total number of KVM exits (Count)
system.cpu.numVMHalfEntries                         0                       # number of KVM entries to finalize pending operations (Count)
system.cpu.numExitSignal                        21439                       # exits due to signal delivery (Count)
system.cpu.numMMIO                             129842                       # number of VM exits due to memory mapped IO (Count)
system.cpu.numCoalescedMMIO                         0                       # number of coalesced memory mapped IO requests (Count)
system.cpu.numIO                                    0                       # number of VM exits due to legacy IO (Count)
system.cpu.numHalt                                  0                       # number of VM exits due to wait for interrupt instructions (Count)
system.cpu.numInterrupts                            0                       # number of interrupts delivered (Count)
system.cpu.numHypercalls                            0                       # number of hypercalls (Count)
system.cpu.dcache.demandHits::switch_cpus.data   1273582239                       # number of demand (read+write) hits (Count)
system.cpu.dcache.demandHits::total        1273582239                       # number of demand (read+write) hits (Count)
system.cpu.dcache.overallHits::switch_cpus.data   1287506473                       # number of overall hits (Count)
system.cpu.dcache.overallHits::total       1287506473                       # number of overall hits (Count)
system.cpu.dcache.demandMisses::switch_cpus.data    118044141                       # number of demand (read+write) misses (Count)
system.cpu.dcache.demandMisses::total       118044141                       # number of demand (read+write) misses (Count)
system.cpu.dcache.overallMisses::switch_cpus.data    144564749                       # number of overall misses (Count)
system.cpu.dcache.overallMisses::total      144564749                       # number of overall misses (Count)
system.cpu.dcache.demandMissLatency::switch_cpus.data 6046318968767                       # number of demand (read+write) miss ticks (Tick)
system.cpu.dcache.demandMissLatency::total 6046318968767                       # number of demand (read+write) miss ticks (Tick)
system.cpu.dcache.overallMissLatency::switch_cpus.data 6046318968767                       # number of overall miss ticks (Tick)
system.cpu.dcache.overallMissLatency::total 6046318968767                       # number of overall miss ticks (Tick)
system.cpu.dcache.demandAccesses::switch_cpus.data   1391626380                       # number of demand (read+write) accesses (Count)
system.cpu.dcache.demandAccesses::total    1391626380                       # number of demand (read+write) accesses (Count)
system.cpu.dcache.overallAccesses::switch_cpus.data   1432071222                       # number of overall (read+write) accesses (Count)
system.cpu.dcache.overallAccesses::total   1432071222                       # number of overall (read+write) accesses (Count)
system.cpu.dcache.demandMissRate::switch_cpus.data     0.084825                       # miss rate for demand accesses (Ratio)
system.cpu.dcache.demandMissRate::total      0.084825                       # miss rate for demand accesses (Ratio)
system.cpu.dcache.overallMissRate::switch_cpus.data     0.100948                       # miss rate for overall accesses (Ratio)
system.cpu.dcache.overallMissRate::total     0.100948                       # miss rate for overall accesses (Ratio)
system.cpu.dcache.demandAvgMissLatency::switch_cpus.data 51220.830763                       # average overall miss latency in ticks ((Tick/Count))
system.cpu.dcache.demandAvgMissLatency::total 51220.830763                       # average overall miss latency in ticks ((Tick/Count))
system.cpu.dcache.overallAvgMissLatency::switch_cpus.data 41824.296798                       # average overall miss latency ((Tick/Count))
system.cpu.dcache.overallAvgMissLatency::total 41824.296798                       # average overall miss latency ((Tick/Count))
system.cpu.dcache.blockedCycles::no_mshrs   2674441721                       # number of cycles access was blocked (Cycle)
system.cpu.dcache.blockedCycles::no_targets         7298                       # number of cycles access was blocked (Cycle)
system.cpu.dcache.blockedCauses::no_mshrs     91852838                       # number of times access was blocked (Count)
system.cpu.dcache.blockedCauses::no_targets           85                       # number of times access was blocked (Count)
system.cpu.dcache.avgBlocked::no_mshrs      29.116593                       # average number of cycles each access was blocked ((Cycle/Count))
system.cpu.dcache.avgBlocked::no_targets    85.858824                       # average number of cycles each access was blocked ((Cycle/Count))
system.cpu.dcache.writebacks::writebacks     92343678                       # number of writebacks (Count)
system.cpu.dcache.writebacks::total          92343678                       # number of writebacks (Count)
system.cpu.dcache.demandMshrHits::switch_cpus.data     19788108                       # number of demand (read+write) MSHR hits (Count)
system.cpu.dcache.demandMshrHits::total      19788108                       # number of demand (read+write) MSHR hits (Count)
system.cpu.dcache.overallMshrHits::switch_cpus.data     19788108                       # number of overall MSHR hits (Count)
system.cpu.dcache.overallMshrHits::total     19788108                       # number of overall MSHR hits (Count)
system.cpu.dcache.demandMshrMisses::switch_cpus.data     98256033                       # number of demand (read+write) MSHR misses (Count)
system.cpu.dcache.demandMshrMisses::total     98256033                       # number of demand (read+write) MSHR misses (Count)
system.cpu.dcache.overallMshrMisses::switch_cpus.data    121494924                       # number of overall MSHR misses (Count)
system.cpu.dcache.overallMshrMisses::total    121494924                       # number of overall MSHR misses (Count)
system.cpu.dcache.overallMshrUncacheable::switch_cpus.data        54265                       # number of overall MSHR uncacheable misses (Count)
system.cpu.dcache.overallMshrUncacheable::total        54265                       # number of overall MSHR uncacheable misses (Count)
system.cpu.dcache.demandMshrMissLatency::switch_cpus.data 4775027939352                       # number of demand (read+write) MSHR miss ticks (Tick)
system.cpu.dcache.demandMshrMissLatency::total 4775027939352                       # number of demand (read+write) MSHR miss ticks (Tick)
system.cpu.dcache.overallMshrMissLatency::switch_cpus.data 6765026015352                       # number of overall MSHR miss ticks (Tick)
system.cpu.dcache.overallMshrMissLatency::total 6765026015352                       # number of overall MSHR miss ticks (Tick)
system.cpu.dcache.overallMshrUncacheableLatency::switch_cpus.data   3193158000                       # number of overall MSHR uncacheable ticks (Tick)
system.cpu.dcache.overallMshrUncacheableLatency::total   3193158000                       # number of overall MSHR uncacheable ticks (Tick)
system.cpu.dcache.demandMshrMissRate::switch_cpus.data     0.070605                       # mshr miss ratio for demand accesses (Ratio)
system.cpu.dcache.demandMshrMissRate::total     0.070605                       # mshr miss ratio for demand accesses (Ratio)
system.cpu.dcache.overallMshrMissRate::switch_cpus.data     0.084839                       # mshr miss ratio for overall accesses (Ratio)
system.cpu.dcache.overallMshrMissRate::total     0.084839                       # mshr miss ratio for overall accesses (Ratio)
system.cpu.dcache.demandAvgMshrMissLatency::switch_cpus.data 48597.809148                       # average overall mshr miss latency ((Tick/Count))
system.cpu.dcache.demandAvgMshrMissLatency::total 48597.809148                       # average overall mshr miss latency ((Tick/Count))
system.cpu.dcache.overallAvgMshrMissLatency::switch_cpus.data 55681.552715                       # average overall mshr miss latency ((Tick/Count))
system.cpu.dcache.overallAvgMshrMissLatency::total 55681.552715                       # average overall mshr miss latency ((Tick/Count))
system.cpu.dcache.overallAvgMshrUncacheableLatency::switch_cpus.data 58843.785129                       # average overall mshr uncacheable latency ((Tick/Count))
system.cpu.dcache.overallAvgMshrUncacheableLatency::total 58843.785129                       # average overall mshr uncacheable latency ((Tick/Count))
system.cpu.dcache.replacements              121158118                       # number of replacements (Count)
system.cpu.dcache.CleanSharedReq.missLatency::switch_cpus.data        30000                       # number of CleanSharedReq miss ticks (Tick)
system.cpu.dcache.CleanSharedReq.missLatency::total        30000                       # number of CleanSharedReq miss ticks (Tick)
system.cpu.dcache.CleanSharedReq.avgMissLatency::switch_cpus.data          inf                       # average CleanSharedReq miss latency ((Tick/Count))
system.cpu.dcache.CleanSharedReq.avgMissLatency::total          inf                       # average CleanSharedReq miss latency ((Tick/Count))
system.cpu.dcache.CleanSharedReq.mshrMisses::switch_cpus.data        32128                       # number of CleanSharedReq MSHR misses (Count)
system.cpu.dcache.CleanSharedReq.mshrMisses::total        32128                       # number of CleanSharedReq MSHR misses (Count)
system.cpu.dcache.CleanSharedReq.mshrMissLatency::switch_cpus.data     49189568                       # number of CleanSharedReq MSHR miss ticks (Tick)
system.cpu.dcache.CleanSharedReq.mshrMissLatency::total     49189568                       # number of CleanSharedReq MSHR miss ticks (Tick)
system.cpu.dcache.CleanSharedReq.mshrMissRate::switch_cpus.data          inf                       # mshr miss rate for CleanSharedReq accesses (Ratio)
system.cpu.dcache.CleanSharedReq.mshrMissRate::total          inf                       # mshr miss rate for CleanSharedReq accesses (Ratio)
system.cpu.dcache.CleanSharedReq.avgMshrMissLatency::switch_cpus.data  1531.049801                       # average CleanSharedReq mshr miss latency ((Tick/Count))
system.cpu.dcache.CleanSharedReq.avgMshrMissLatency::total  1531.049801                       # average CleanSharedReq mshr miss latency ((Tick/Count))
system.cpu.dcache.LoadLockedReq.hits::switch_cpus.data         2375                       # number of LoadLockedReq hits (Count)
system.cpu.dcache.LoadLockedReq.hits::total         2375                       # number of LoadLockedReq hits (Count)
system.cpu.dcache.LoadLockedReq.misses::switch_cpus.data           39                       # number of LoadLockedReq misses (Count)
system.cpu.dcache.LoadLockedReq.misses::total           39                       # number of LoadLockedReq misses (Count)
system.cpu.dcache.LoadLockedReq.missLatency::switch_cpus.data      2732000                       # number of LoadLockedReq miss ticks (Tick)
system.cpu.dcache.LoadLockedReq.missLatency::total      2732000                       # number of LoadLockedReq miss ticks (Tick)
system.cpu.dcache.LoadLockedReq.accesses::switch_cpus.data         2414                       # number of LoadLockedReq accesses(hits+misses) (Count)
system.cpu.dcache.LoadLockedReq.accesses::total         2414                       # number of LoadLockedReq accesses(hits+misses) (Count)
system.cpu.dcache.LoadLockedReq.missRate::switch_cpus.data     0.016156                       # miss rate for LoadLockedReq accesses (Ratio)
system.cpu.dcache.LoadLockedReq.missRate::total     0.016156                       # miss rate for LoadLockedReq accesses (Ratio)
system.cpu.dcache.LoadLockedReq.avgMissLatency::switch_cpus.data 70051.282051                       # average LoadLockedReq miss latency ((Tick/Count))
system.cpu.dcache.LoadLockedReq.avgMissLatency::total 70051.282051                       # average LoadLockedReq miss latency ((Tick/Count))
system.cpu.dcache.LoadLockedReq.mshrMisses::switch_cpus.data           39                       # number of LoadLockedReq MSHR misses (Count)
system.cpu.dcache.LoadLockedReq.mshrMisses::total           39                       # number of LoadLockedReq MSHR misses (Count)
system.cpu.dcache.LoadLockedReq.mshrMissLatency::switch_cpus.data      2693000                       # number of LoadLockedReq MSHR miss ticks (Tick)
system.cpu.dcache.LoadLockedReq.mshrMissLatency::total      2693000                       # number of LoadLockedReq MSHR miss ticks (Tick)
system.cpu.dcache.LoadLockedReq.mshrMissRate::switch_cpus.data     0.016156                       # mshr miss rate for LoadLockedReq accesses (Ratio)
system.cpu.dcache.LoadLockedReq.mshrMissRate::total     0.016156                       # mshr miss rate for LoadLockedReq accesses (Ratio)
system.cpu.dcache.LoadLockedReq.avgMshrMissLatency::switch_cpus.data 69051.282051                       # average LoadLockedReq mshr miss latency ((Tick/Count))
system.cpu.dcache.LoadLockedReq.avgMshrMissLatency::total 69051.282051                       # average LoadLockedReq mshr miss latency ((Tick/Count))
system.cpu.dcache.ReadReq.hits::switch_cpus.data    675286711                       # number of ReadReq hits (Count)
system.cpu.dcache.ReadReq.hits::total       675286711                       # number of ReadReq hits (Count)
system.cpu.dcache.ReadReq.misses::switch_cpus.data     22786656                       # number of ReadReq misses (Count)
system.cpu.dcache.ReadReq.misses::total      22786656                       # number of ReadReq misses (Count)
system.cpu.dcache.ReadReq.missLatency::switch_cpus.data 1569416877500                       # number of ReadReq miss ticks (Tick)
system.cpu.dcache.ReadReq.missLatency::total 1569416877500                       # number of ReadReq miss ticks (Tick)
system.cpu.dcache.ReadReq.accesses::switch_cpus.data    698073367                       # number of ReadReq accesses(hits+misses) (Count)
system.cpu.dcache.ReadReq.accesses::total    698073367                       # number of ReadReq accesses(hits+misses) (Count)
system.cpu.dcache.ReadReq.missRate::switch_cpus.data     0.032642                       # miss rate for ReadReq accesses (Ratio)
system.cpu.dcache.ReadReq.missRate::total     0.032642                       # miss rate for ReadReq accesses (Ratio)
system.cpu.dcache.ReadReq.avgMissLatency::switch_cpus.data 68874.383214                       # average ReadReq miss latency ((Tick/Count))
system.cpu.dcache.ReadReq.avgMissLatency::total 68874.383214                       # average ReadReq miss latency ((Tick/Count))
system.cpu.dcache.ReadReq.mshrHits::switch_cpus.data     10200100                       # number of ReadReq MSHR hits (Count)
system.cpu.dcache.ReadReq.mshrHits::total     10200100                       # number of ReadReq MSHR hits (Count)
system.cpu.dcache.ReadReq.mshrMisses::switch_cpus.data     12586556                       # number of ReadReq MSHR misses (Count)
system.cpu.dcache.ReadReq.mshrMisses::total     12586556                       # number of ReadReq MSHR misses (Count)
system.cpu.dcache.ReadReq.mshrUncacheable::switch_cpus.data        50186                       # number of ReadReq MSHR uncacheable (Count)
system.cpu.dcache.ReadReq.mshrUncacheable::total        50186                       # number of ReadReq MSHR uncacheable (Count)
system.cpu.dcache.ReadReq.mshrMissLatency::switch_cpus.data 993211951502                       # number of ReadReq MSHR miss ticks (Tick)
system.cpu.dcache.ReadReq.mshrMissLatency::total 993211951502                       # number of ReadReq MSHR miss ticks (Tick)
system.cpu.dcache.ReadReq.mshrUncacheableLatency::switch_cpus.data   3193158000                       # number of ReadReq MSHR uncacheable ticks (Tick)
system.cpu.dcache.ReadReq.mshrUncacheableLatency::total   3193158000                       # number of ReadReq MSHR uncacheable ticks (Tick)
system.cpu.dcache.ReadReq.mshrMissRate::switch_cpus.data     0.018030                       # mshr miss rate for ReadReq accesses (Ratio)
system.cpu.dcache.ReadReq.mshrMissRate::total     0.018030                       # mshr miss rate for ReadReq accesses (Ratio)
system.cpu.dcache.ReadReq.avgMshrMissLatency::switch_cpus.data 78910.541653                       # average ReadReq mshr miss latency ((Tick/Count))
system.cpu.dcache.ReadReq.avgMshrMissLatency::total 78910.541653                       # average ReadReq mshr miss latency ((Tick/Count))
system.cpu.dcache.ReadReq.avgMshrUncacheableLatency::switch_cpus.data 63626.469533                       # average ReadReq mshr uncacheable latency ((Tick/Count))
system.cpu.dcache.ReadReq.avgMshrUncacheableLatency::total 63626.469533                       # average ReadReq mshr uncacheable latency ((Tick/Count))
system.cpu.dcache.SoftPFExReq.hits::switch_cpus.data          618                       # number of SoftPFExReq hits (Count)
system.cpu.dcache.SoftPFExReq.hits::total          618                       # number of SoftPFExReq hits (Count)
system.cpu.dcache.SoftPFExReq.accesses::switch_cpus.data          618                       # number of SoftPFExReq accesses(hits+misses) (Count)
system.cpu.dcache.SoftPFExReq.accesses::total          618                       # number of SoftPFExReq accesses(hits+misses) (Count)
system.cpu.dcache.SoftPFReq.hits::switch_cpus.data     13923616                       # number of SoftPFReq hits (Count)
system.cpu.dcache.SoftPFReq.hits::total      13923616                       # number of SoftPFReq hits (Count)
system.cpu.dcache.SoftPFReq.misses::switch_cpus.data     26520608                       # number of SoftPFReq misses (Count)
system.cpu.dcache.SoftPFReq.misses::total     26520608                       # number of SoftPFReq misses (Count)
system.cpu.dcache.SoftPFReq.accesses::switch_cpus.data     40444224                       # number of SoftPFReq accesses(hits+misses) (Count)
system.cpu.dcache.SoftPFReq.accesses::total     40444224                       # number of SoftPFReq accesses(hits+misses) (Count)
system.cpu.dcache.SoftPFReq.missRate::switch_cpus.data     0.655733                       # miss rate for SoftPFReq accesses (Ratio)
system.cpu.dcache.SoftPFReq.missRate::total     0.655733                       # miss rate for SoftPFReq accesses (Ratio)
system.cpu.dcache.SoftPFReq.mshrMisses::switch_cpus.data     23238891                       # number of SoftPFReq MSHR misses (Count)
system.cpu.dcache.SoftPFReq.mshrMisses::total     23238891                       # number of SoftPFReq MSHR misses (Count)
system.cpu.dcache.SoftPFReq.mshrMissLatency::switch_cpus.data 1989998076000                       # number of SoftPFReq MSHR miss ticks (Tick)
system.cpu.dcache.SoftPFReq.mshrMissLatency::total 1989998076000                       # number of SoftPFReq MSHR miss ticks (Tick)
system.cpu.dcache.SoftPFReq.mshrMissRate::switch_cpus.data     0.574591                       # mshr miss rate for SoftPFReq accesses (Ratio)
system.cpu.dcache.SoftPFReq.mshrMissRate::total     0.574591                       # mshr miss rate for SoftPFReq accesses (Ratio)
system.cpu.dcache.SoftPFReq.avgMshrMissLatency::switch_cpus.data 85632.230729                       # average SoftPFReq mshr miss latency ((Tick/Count))
system.cpu.dcache.SoftPFReq.avgMshrMissLatency::total 85632.230729                       # average SoftPFReq mshr miss latency ((Tick/Count))
system.cpu.dcache.StoreCondReq.hits::switch_cpus.data          187                       # number of StoreCondReq hits (Count)
system.cpu.dcache.StoreCondReq.hits::total          187                       # number of StoreCondReq hits (Count)
system.cpu.dcache.StoreCondReq.misses::switch_cpus.data            3                       # number of StoreCondReq misses (Count)
system.cpu.dcache.StoreCondReq.misses::total            3                       # number of StoreCondReq misses (Count)
system.cpu.dcache.StoreCondReq.missLatency::switch_cpus.data        39000                       # number of StoreCondReq miss ticks (Tick)
system.cpu.dcache.StoreCondReq.missLatency::total        39000                       # number of StoreCondReq miss ticks (Tick)
system.cpu.dcache.StoreCondReq.accesses::switch_cpus.data          190                       # number of StoreCondReq accesses(hits+misses) (Count)
system.cpu.dcache.StoreCondReq.accesses::total          190                       # number of StoreCondReq accesses(hits+misses) (Count)
system.cpu.dcache.StoreCondReq.missRate::switch_cpus.data     0.015789                       # miss rate for StoreCondReq accesses (Ratio)
system.cpu.dcache.StoreCondReq.missRate::total     0.015789                       # miss rate for StoreCondReq accesses (Ratio)
system.cpu.dcache.StoreCondReq.avgMissLatency::switch_cpus.data        13000                       # average StoreCondReq miss latency ((Tick/Count))
system.cpu.dcache.StoreCondReq.avgMissLatency::total        13000                       # average StoreCondReq miss latency ((Tick/Count))
system.cpu.dcache.StoreCondReq.mshrMisses::switch_cpus.data            3                       # number of StoreCondReq MSHR misses (Count)
system.cpu.dcache.StoreCondReq.mshrMisses::total            3                       # number of StoreCondReq MSHR misses (Count)
system.cpu.dcache.StoreCondReq.mshrMissLatency::switch_cpus.data        36000                       # number of StoreCondReq MSHR miss ticks (Tick)
system.cpu.dcache.StoreCondReq.mshrMissLatency::total        36000                       # number of StoreCondReq MSHR miss ticks (Tick)
system.cpu.dcache.StoreCondReq.mshrMissRate::switch_cpus.data     0.015789                       # mshr miss rate for StoreCondReq accesses (Ratio)
system.cpu.dcache.StoreCondReq.mshrMissRate::total     0.015789                       # mshr miss rate for StoreCondReq accesses (Ratio)
system.cpu.dcache.StoreCondReq.avgMshrMissLatency::switch_cpus.data        12000                       # average StoreCondReq mshr miss latency ((Tick/Count))
system.cpu.dcache.StoreCondReq.avgMshrMissLatency::total        12000                       # average StoreCondReq mshr miss latency ((Tick/Count))
system.cpu.dcache.SwapReq.hits::switch_cpus.data      1620989                       # number of SwapReq hits (Count)
system.cpu.dcache.SwapReq.hits::total         1620989                       # number of SwapReq hits (Count)
system.cpu.dcache.SwapReq.misses::switch_cpus.data       140011                       # number of SwapReq misses (Count)
system.cpu.dcache.SwapReq.misses::total        140011                       # number of SwapReq misses (Count)
system.cpu.dcache.SwapReq.missLatency::switch_cpus.data   2691745500                       # number of SwapReq miss ticks (Tick)
system.cpu.dcache.SwapReq.missLatency::total   2691745500                       # number of SwapReq miss ticks (Tick)
system.cpu.dcache.SwapReq.accesses::switch_cpus.data      1761000                       # number of SwapReq accesses(hits+misses) (Count)
system.cpu.dcache.SwapReq.accesses::total      1761000                       # number of SwapReq accesses(hits+misses) (Count)
system.cpu.dcache.SwapReq.missRate::switch_cpus.data     0.079507                       # miss rate for SwapReq accesses (Ratio)
system.cpu.dcache.SwapReq.missRate::total     0.079507                       # miss rate for SwapReq accesses (Ratio)
system.cpu.dcache.SwapReq.avgMissLatency::switch_cpus.data 19225.243017                       # average SwapReq miss latency ((Tick/Count))
system.cpu.dcache.SwapReq.avgMissLatency::total 19225.243017                       # average SwapReq miss latency ((Tick/Count))
system.cpu.dcache.SwapReq.mshrHits::switch_cpus.data           25                       # number of SwapReq MSHR hits (Count)
system.cpu.dcache.SwapReq.mshrHits::total           25                       # number of SwapReq MSHR hits (Count)
system.cpu.dcache.SwapReq.mshrMisses::switch_cpus.data       139986                       # number of SwapReq MSHR misses (Count)
system.cpu.dcache.SwapReq.mshrMisses::total       139986                       # number of SwapReq MSHR misses (Count)
system.cpu.dcache.SwapReq.mshrMissLatency::switch_cpus.data   2550028500                       # number of SwapReq MSHR miss ticks (Tick)
system.cpu.dcache.SwapReq.mshrMissLatency::total   2550028500                       # number of SwapReq MSHR miss ticks (Tick)
system.cpu.dcache.SwapReq.mshrMissRate::switch_cpus.data     0.079492                       # mshr miss rate for SwapReq accesses (Ratio)
system.cpu.dcache.SwapReq.mshrMissRate::total     0.079492                       # mshr miss rate for SwapReq accesses (Ratio)
system.cpu.dcache.SwapReq.avgMshrMissLatency::switch_cpus.data 18216.310917                       # average SwapReq mshr miss latency ((Tick/Count))
system.cpu.dcache.SwapReq.avgMshrMissLatency::total 18216.310917                       # average SwapReq mshr miss latency ((Tick/Count))
system.cpu.dcache.WriteLineReq.hits::switch_cpus.data       112755                       # number of WriteLineReq hits (Count)
system.cpu.dcache.WriteLineReq.hits::total       112755                       # number of WriteLineReq hits (Count)
system.cpu.dcache.WriteLineReq.misses::switch_cpus.data     81355774                       # number of WriteLineReq misses (Count)
system.cpu.dcache.WriteLineReq.misses::total     81355774                       # number of WriteLineReq misses (Count)
system.cpu.dcache.WriteLineReq.missLatency::switch_cpus.data 3518612842605                       # number of WriteLineReq miss ticks (Tick)
system.cpu.dcache.WriteLineReq.missLatency::total 3518612842605                       # number of WriteLineReq miss ticks (Tick)
system.cpu.dcache.WriteLineReq.accesses::switch_cpus.data     81468529                       # number of WriteLineReq accesses(hits+misses) (Count)
system.cpu.dcache.WriteLineReq.accesses::total     81468529                       # number of WriteLineReq accesses(hits+misses) (Count)
system.cpu.dcache.WriteLineReq.missRate::switch_cpus.data     0.998616                       # miss rate for WriteLineReq accesses (Ratio)
system.cpu.dcache.WriteLineReq.missRate::total     0.998616                       # miss rate for WriteLineReq accesses (Ratio)
system.cpu.dcache.WriteLineReq.avgMissLatency::switch_cpus.data 43249.700293                       # average WriteLineReq miss latency ((Tick/Count))
system.cpu.dcache.WriteLineReq.avgMissLatency::total 43249.700293                       # average WriteLineReq miss latency ((Tick/Count))
system.cpu.dcache.WriteLineReq.mshrHits::switch_cpus.data           37                       # number of WriteLineReq MSHR hits (Count)
system.cpu.dcache.WriteLineReq.mshrHits::total           37                       # number of WriteLineReq MSHR hits (Count)
system.cpu.dcache.WriteLineReq.mshrMisses::switch_cpus.data     81355737                       # number of WriteLineReq MSHR misses (Count)
system.cpu.dcache.WriteLineReq.mshrMisses::total     81355737                       # number of WriteLineReq MSHR misses (Count)
system.cpu.dcache.WriteLineReq.mshrMissLatency::switch_cpus.data 3437254789605                       # number of WriteLineReq MSHR miss ticks (Tick)
system.cpu.dcache.WriteLineReq.mshrMissLatency::total 3437254789605                       # number of WriteLineReq MSHR miss ticks (Tick)
system.cpu.dcache.WriteLineReq.mshrMissRate::switch_cpus.data     0.998616                       # mshr miss rate for WriteLineReq accesses (Ratio)
system.cpu.dcache.WriteLineReq.mshrMissRate::total     0.998616                       # mshr miss rate for WriteLineReq accesses (Ratio)
system.cpu.dcache.WriteLineReq.avgMshrMissLatency::switch_cpus.data 42249.691495                       # average WriteLineReq mshr miss latency ((Tick/Count))
system.cpu.dcache.WriteLineReq.avgMshrMissLatency::total 42249.691495                       # average WriteLineReq mshr miss latency ((Tick/Count))
system.cpu.dcache.WriteReq.hits::switch_cpus.data    598182773                       # number of WriteReq hits (Count)
system.cpu.dcache.WriteReq.hits::total      598182773                       # number of WriteReq hits (Count)
system.cpu.dcache.WriteReq.misses::switch_cpus.data     13901711                       # number of WriteReq misses (Count)
system.cpu.dcache.WriteReq.misses::total     13901711                       # number of WriteReq misses (Count)
system.cpu.dcache.WriteReq.missLatency::switch_cpus.data 958289248662                       # number of WriteReq miss ticks (Tick)
system.cpu.dcache.WriteReq.missLatency::total 958289248662                       # number of WriteReq miss ticks (Tick)
system.cpu.dcache.WriteReq.accesses::switch_cpus.data    612084484                       # number of WriteReq accesses(hits+misses) (Count)
system.cpu.dcache.WriteReq.accesses::total    612084484                       # number of WriteReq accesses(hits+misses) (Count)
system.cpu.dcache.WriteReq.missRate::switch_cpus.data     0.022712                       # miss rate for WriteReq accesses (Ratio)
system.cpu.dcache.WriteReq.missRate::total     0.022712                       # miss rate for WriteReq accesses (Ratio)
system.cpu.dcache.WriteReq.avgMissLatency::switch_cpus.data 68933.187337                       # average WriteReq miss latency ((Tick/Count))
system.cpu.dcache.WriteReq.avgMissLatency::total 68933.187337                       # average WriteReq miss latency ((Tick/Count))
system.cpu.dcache.WriteReq.mshrHits::switch_cpus.data      9587971                       # number of WriteReq MSHR hits (Count)
system.cpu.dcache.WriteReq.mshrHits::total      9587971                       # number of WriteReq MSHR hits (Count)
system.cpu.dcache.WriteReq.mshrMisses::switch_cpus.data      4313740                       # number of WriteReq MSHR misses (Count)
system.cpu.dcache.WriteReq.mshrMisses::total      4313740                       # number of WriteReq MSHR misses (Count)
system.cpu.dcache.WriteReq.mshrUncacheable::switch_cpus.data         4079                       # number of WriteReq MSHR uncacheable (Count)
system.cpu.dcache.WriteReq.mshrUncacheable::total         4079                       # number of WriteReq MSHR uncacheable (Count)
system.cpu.dcache.WriteReq.mshrMissLatency::switch_cpus.data 344561198245                       # number of WriteReq MSHR miss ticks (Tick)
system.cpu.dcache.WriteReq.mshrMissLatency::total 344561198245                       # number of WriteReq MSHR miss ticks (Tick)
system.cpu.dcache.WriteReq.mshrMissRate::switch_cpus.data     0.007048                       # mshr miss rate for WriteReq accesses (Ratio)
system.cpu.dcache.WriteReq.mshrMissRate::total     0.007048                       # mshr miss rate for WriteReq accesses (Ratio)
system.cpu.dcache.WriteReq.avgMshrMissLatency::switch_cpus.data 79875.281831                       # average WriteReq mshr miss latency ((Tick/Count))
system.cpu.dcache.WriteReq.avgMshrMissLatency::total 79875.281831                       # average WriteReq mshr miss latency ((Tick/Count))
system.cpu.dcache.power_state.pwrStateResidencyTicks::UNDEFINED 23892681666500                       # Cumulative time (in ticks) in various power states (Tick)
system.cpu.dcache.tags.tagsInUse           134.721876                       # Average ticks per tags in use ((Tick/Count))
system.cpu.dcache.tags.totalRefs           1411080331                       # Total number of references to valid blocks. (Count)
system.cpu.dcache.tags.sampledRefs          121159142                       # Sample count of references to valid blocks. (Count)
system.cpu.dcache.tags.avgRefs              11.646503                       # Average number of references to valid blocks. ((Count/Count))
system.cpu.dcache.tags.warmupTick        20746098179500                       # The tick when the warmup percentage was hit. (Tick)
system.cpu.dcache.tags.occupancies::switch_cpus.data   134.721876                       # Average occupied blocks per tick, per requestor ((Count/Tick))
system.cpu.dcache.tags.avgOccs::switch_cpus.data     0.131564                       # Average percentage of cache occupancy ((Ratio/Tick))
system.cpu.dcache.tags.avgOccs::total        0.131564                       # Average percentage of cache occupancy ((Ratio/Tick))
system.cpu.dcache.tags.tagAccesses         5856626958                       # Number of tag accesses (Count)
system.cpu.dcache.tags.dataAccesses        5856626958                       # Number of data accesses (Count)
system.cpu.dcache.tags.power_state.pwrStateResidencyTicks::UNDEFINED 23892681666500                       # Cumulative time (in ticks) in various power states (Tick)
system.cpu.icache.demandHits::switch_cpus.inst    731493069                       # number of demand (read+write) hits (Count)
system.cpu.icache.demandHits::total         731493069                       # number of demand (read+write) hits (Count)
system.cpu.icache.overallHits::switch_cpus.inst    731493069                       # number of overall hits (Count)
system.cpu.icache.overallHits::total        731493069                       # number of overall hits (Count)
system.cpu.icache.demandMisses::switch_cpus.inst       402500                       # number of demand (read+write) misses (Count)
system.cpu.icache.demandMisses::total          402500                       # number of demand (read+write) misses (Count)
system.cpu.icache.overallMisses::switch_cpus.inst       402500                       # number of overall misses (Count)
system.cpu.icache.overallMisses::total         402500                       # number of overall misses (Count)
system.cpu.icache.demandMissLatency::switch_cpus.inst  20298429451                       # number of demand (read+write) miss ticks (Tick)
system.cpu.icache.demandMissLatency::total  20298429451                       # number of demand (read+write) miss ticks (Tick)
system.cpu.icache.overallMissLatency::switch_cpus.inst  20298429451                       # number of overall miss ticks (Tick)
system.cpu.icache.overallMissLatency::total  20298429451                       # number of overall miss ticks (Tick)
system.cpu.icache.demandAccesses::switch_cpus.inst    731895569                       # number of demand (read+write) accesses (Count)
system.cpu.icache.demandAccesses::total     731895569                       # number of demand (read+write) accesses (Count)
system.cpu.icache.overallAccesses::switch_cpus.inst    731895569                       # number of overall (read+write) accesses (Count)
system.cpu.icache.overallAccesses::total    731895569                       # number of overall (read+write) accesses (Count)
system.cpu.icache.demandMissRate::switch_cpus.inst     0.000550                       # miss rate for demand accesses (Ratio)
system.cpu.icache.demandMissRate::total      0.000550                       # miss rate for demand accesses (Ratio)
system.cpu.icache.overallMissRate::switch_cpus.inst     0.000550                       # miss rate for overall accesses (Ratio)
system.cpu.icache.overallMissRate::total     0.000550                       # miss rate for overall accesses (Ratio)
system.cpu.icache.demandAvgMissLatency::switch_cpus.inst 50430.880624                       # average overall miss latency in ticks ((Tick/Count))
system.cpu.icache.demandAvgMissLatency::total 50430.880624                       # average overall miss latency in ticks ((Tick/Count))
system.cpu.icache.overallAvgMissLatency::switch_cpus.inst 50430.880624                       # average overall miss latency ((Tick/Count))
system.cpu.icache.overallAvgMissLatency::total 50430.880624                       # average overall miss latency ((Tick/Count))
system.cpu.icache.blockedCycles::no_mshrs        44727                       # number of cycles access was blocked (Cycle)
system.cpu.icache.blockedCycles::no_targets            0                       # number of cycles access was blocked (Cycle)
system.cpu.icache.blockedCauses::no_mshrs          830                       # number of times access was blocked (Count)
system.cpu.icache.blockedCauses::no_targets            0                       # number of times access was blocked (Count)
system.cpu.icache.avgBlocked::no_mshrs      53.887952                       # average number of cycles each access was blocked ((Cycle/Count))
system.cpu.icache.avgBlocked::no_targets          nan                       # average number of cycles each access was blocked ((Cycle/Count))
system.cpu.icache.writebacks::writebacks       353354                       # number of writebacks (Count)
system.cpu.icache.writebacks::total            353354                       # number of writebacks (Count)
system.cpu.icache.demandMshrHits::switch_cpus.inst        48122                       # number of demand (read+write) MSHR hits (Count)
system.cpu.icache.demandMshrHits::total         48122                       # number of demand (read+write) MSHR hits (Count)
system.cpu.icache.overallMshrHits::switch_cpus.inst        48122                       # number of overall MSHR hits (Count)
system.cpu.icache.overallMshrHits::total        48122                       # number of overall MSHR hits (Count)
system.cpu.icache.demandMshrMisses::switch_cpus.inst       354378                       # number of demand (read+write) MSHR misses (Count)
system.cpu.icache.demandMshrMisses::total       354378                       # number of demand (read+write) MSHR misses (Count)
system.cpu.icache.overallMshrMisses::switch_cpus.inst       354378                       # number of overall MSHR misses (Count)
system.cpu.icache.overallMshrMisses::total       354378                       # number of overall MSHR misses (Count)
system.cpu.icache.demandMshrMissLatency::switch_cpus.inst  17405648967                       # number of demand (read+write) MSHR miss ticks (Tick)
system.cpu.icache.demandMshrMissLatency::total  17405648967                       # number of demand (read+write) MSHR miss ticks (Tick)
system.cpu.icache.overallMshrMissLatency::switch_cpus.inst  17405648967                       # number of overall MSHR miss ticks (Tick)
system.cpu.icache.overallMshrMissLatency::total  17405648967                       # number of overall MSHR miss ticks (Tick)
system.cpu.icache.demandMshrMissRate::switch_cpus.inst     0.000484                       # mshr miss ratio for demand accesses (Ratio)
system.cpu.icache.demandMshrMissRate::total     0.000484                       # mshr miss ratio for demand accesses (Ratio)
system.cpu.icache.overallMshrMissRate::switch_cpus.inst     0.000484                       # mshr miss ratio for overall accesses (Ratio)
system.cpu.icache.overallMshrMissRate::total     0.000484                       # mshr miss ratio for overall accesses (Ratio)
system.cpu.icache.demandAvgMshrMissLatency::switch_cpus.inst 49116.053951                       # average overall mshr miss latency ((Tick/Count))
system.cpu.icache.demandAvgMshrMissLatency::total 49116.053951                       # average overall mshr miss latency ((Tick/Count))
system.cpu.icache.overallAvgMshrMissLatency::switch_cpus.inst 49116.053951                       # average overall mshr miss latency ((Tick/Count))
system.cpu.icache.overallAvgMshrMissLatency::total 49116.053951                       # average overall mshr miss latency ((Tick/Count))
system.cpu.icache.replacements                 353354                       # number of replacements (Count)
system.cpu.icache.ReadReq.hits::switch_cpus.inst    731493069                       # number of ReadReq hits (Count)
system.cpu.icache.ReadReq.hits::total       731493069                       # number of ReadReq hits (Count)
system.cpu.icache.ReadReq.misses::switch_cpus.inst       402500                       # number of ReadReq misses (Count)
system.cpu.icache.ReadReq.misses::total        402500                       # number of ReadReq misses (Count)
system.cpu.icache.ReadReq.missLatency::switch_cpus.inst  20298429451                       # number of ReadReq miss ticks (Tick)
system.cpu.icache.ReadReq.missLatency::total  20298429451                       # number of ReadReq miss ticks (Tick)
system.cpu.icache.ReadReq.accesses::switch_cpus.inst    731895569                       # number of ReadReq accesses(hits+misses) (Count)
system.cpu.icache.ReadReq.accesses::total    731895569                       # number of ReadReq accesses(hits+misses) (Count)
system.cpu.icache.ReadReq.missRate::switch_cpus.inst     0.000550                       # miss rate for ReadReq accesses (Ratio)
system.cpu.icache.ReadReq.missRate::total     0.000550                       # miss rate for ReadReq accesses (Ratio)
system.cpu.icache.ReadReq.avgMissLatency::switch_cpus.inst 50430.880624                       # average ReadReq miss latency ((Tick/Count))
system.cpu.icache.ReadReq.avgMissLatency::total 50430.880624                       # average ReadReq miss latency ((Tick/Count))
system.cpu.icache.ReadReq.mshrHits::switch_cpus.inst        48122                       # number of ReadReq MSHR hits (Count)
system.cpu.icache.ReadReq.mshrHits::total        48122                       # number of ReadReq MSHR hits (Count)
system.cpu.icache.ReadReq.mshrMisses::switch_cpus.inst       354378                       # number of ReadReq MSHR misses (Count)
system.cpu.icache.ReadReq.mshrMisses::total       354378                       # number of ReadReq MSHR misses (Count)
system.cpu.icache.ReadReq.mshrMissLatency::switch_cpus.inst  17405648967                       # number of ReadReq MSHR miss ticks (Tick)
system.cpu.icache.ReadReq.mshrMissLatency::total  17405648967                       # number of ReadReq MSHR miss ticks (Tick)
system.cpu.icache.ReadReq.mshrMissRate::switch_cpus.inst     0.000484                       # mshr miss rate for ReadReq accesses (Ratio)
system.cpu.icache.ReadReq.mshrMissRate::total     0.000484                       # mshr miss rate for ReadReq accesses (Ratio)
system.cpu.icache.ReadReq.avgMshrMissLatency::switch_cpus.inst 49116.053951                       # average ReadReq mshr miss latency ((Tick/Count))
system.cpu.icache.ReadReq.avgMshrMissLatency::total 49116.053951                       # average ReadReq mshr miss latency ((Tick/Count))
system.cpu.icache.power_state.pwrStateResidencyTicks::UNDEFINED 23892681666500                       # Cumulative time (in ticks) in various power states (Tick)
system.cpu.icache.tags.tagsInUse           134.721883                       # Average ticks per tags in use ((Tick/Count))
system.cpu.icache.tags.totalRefs            731847447                       # Total number of references to valid blocks. (Count)
system.cpu.icache.tags.sampledRefs             354378                       # Sample count of references to valid blocks. (Count)
system.cpu.icache.tags.avgRefs            2065.160498                       # Average number of references to valid blocks. ((Count/Count))
system.cpu.icache.tags.warmupTick        20746097614500                       # The tick when the warmup percentage was hit. (Tick)
system.cpu.icache.tags.occupancies::switch_cpus.inst   134.721883                       # Average occupied blocks per tick, per requestor ((Count/Tick))
system.cpu.icache.tags.avgOccs::switch_cpus.inst     0.131564                       # Average percentage of cache occupancy ((Ratio/Tick))
system.cpu.icache.tags.avgOccs::total        0.131564                       # Average percentage of cache occupancy ((Ratio/Tick))
system.cpu.icache.tags.tagAccesses         2927936654                       # Number of tag accesses (Count)
system.cpu.icache.tags.dataAccesses        2927936654                       # Number of data accesses (Count)
system.cpu.icache.tags.power_state.pwrStateResidencyTicks::UNDEFINED 23892681666500                       # Cumulative time (in ticks) in various power states (Tick)
system.cpu.l2cache.demandHits::switch_cpus.mmu.dtb_walker       128517                       # number of demand (read+write) hits (Count)
system.cpu.l2cache.demandHits::switch_cpus.mmu.itb_walker        17792                       # number of demand (read+write) hits (Count)
system.cpu.l2cache.demandHits::switch_cpus.inst       208435                       # number of demand (read+write) hits (Count)
system.cpu.l2cache.demandHits::switch_cpus.data      8603865                       # number of demand (read+write) hits (Count)
system.cpu.l2cache.demandHits::total          8958609                       # number of demand (read+write) hits (Count)
system.cpu.l2cache.overallHits::switch_cpus.mmu.dtb_walker       128517                       # number of overall hits (Count)
system.cpu.l2cache.overallHits::switch_cpus.mmu.itb_walker        17792                       # number of overall hits (Count)
system.cpu.l2cache.overallHits::switch_cpus.inst       208435                       # number of overall hits (Count)
system.cpu.l2cache.overallHits::switch_cpus.data      8603865                       # number of overall hits (Count)
system.cpu.l2cache.overallHits::total         8958609                       # number of overall hits (Count)
system.cpu.l2cache.demandMisses::switch_cpus.mmu.dtb_walker        22809                       # number of demand (read+write) misses (Count)
system.cpu.l2cache.demandMisses::switch_cpus.mmu.itb_walker         3450                       # number of demand (read+write) misses (Count)
system.cpu.l2cache.demandMisses::switch_cpus.inst       145943                       # number of demand (read+write) misses (Count)
system.cpu.l2cache.demandMisses::switch_cpus.data     31187653                       # number of demand (read+write) misses (Count)
system.cpu.l2cache.demandMisses::total       31359855                       # number of demand (read+write) misses (Count)
system.cpu.l2cache.overallMisses::switch_cpus.mmu.dtb_walker        22809                       # number of overall misses (Count)
system.cpu.l2cache.overallMisses::switch_cpus.mmu.itb_walker         3450                       # number of overall misses (Count)
system.cpu.l2cache.overallMisses::switch_cpus.inst       145943                       # number of overall misses (Count)
system.cpu.l2cache.overallMisses::switch_cpus.data     31187653                       # number of overall misses (Count)
system.cpu.l2cache.overallMisses::total      31359855                       # number of overall misses (Count)
system.cpu.l2cache.demandMissLatency::switch_cpus.mmu.dtb_walker   2304043701                       # number of demand (read+write) miss ticks (Tick)
system.cpu.l2cache.demandMissLatency::switch_cpus.mmu.itb_walker    221344451                       # number of demand (read+write) miss ticks (Tick)
system.cpu.l2cache.demandMissLatency::switch_cpus.inst  14657865500                       # number of demand (read+write) miss ticks (Tick)
system.cpu.l2cache.demandMissLatency::switch_cpus.data 3155599839480                       # number of demand (read+write) miss ticks (Tick)
system.cpu.l2cache.demandMissLatency::total 3172783093132                       # number of demand (read+write) miss ticks (Tick)
system.cpu.l2cache.overallMissLatency::switch_cpus.mmu.dtb_walker   2304043701                       # number of overall miss ticks (Tick)
system.cpu.l2cache.overallMissLatency::switch_cpus.mmu.itb_walker    221344451                       # number of overall miss ticks (Tick)
system.cpu.l2cache.overallMissLatency::switch_cpus.inst  14657865500                       # number of overall miss ticks (Tick)
system.cpu.l2cache.overallMissLatency::switch_cpus.data 3155599839480                       # number of overall miss ticks (Tick)
system.cpu.l2cache.overallMissLatency::total 3172783093132                       # number of overall miss ticks (Tick)
system.cpu.l2cache.demandAccesses::switch_cpus.mmu.dtb_walker       151326                       # number of demand (read+write) accesses (Count)
system.cpu.l2cache.demandAccesses::switch_cpus.mmu.itb_walker        21242                       # number of demand (read+write) accesses (Count)
system.cpu.l2cache.demandAccesses::switch_cpus.inst       354378                       # number of demand (read+write) accesses (Count)
system.cpu.l2cache.demandAccesses::switch_cpus.data     39791518                       # number of demand (read+write) accesses (Count)
system.cpu.l2cache.demandAccesses::total     40318464                       # number of demand (read+write) accesses (Count)
system.cpu.l2cache.overallAccesses::switch_cpus.mmu.dtb_walker       151326                       # number of overall (read+write) accesses (Count)
system.cpu.l2cache.overallAccesses::switch_cpus.mmu.itb_walker        21242                       # number of overall (read+write) accesses (Count)
system.cpu.l2cache.overallAccesses::switch_cpus.inst       354378                       # number of overall (read+write) accesses (Count)
system.cpu.l2cache.overallAccesses::switch_cpus.data     39791518                       # number of overall (read+write) accesses (Count)
system.cpu.l2cache.overallAccesses::total     40318464                       # number of overall (read+write) accesses (Count)
system.cpu.l2cache.demandMissRate::switch_cpus.mmu.dtb_walker     0.150728                       # miss rate for demand accesses (Ratio)
system.cpu.l2cache.demandMissRate::switch_cpus.mmu.itb_walker     0.162414                       # miss rate for demand accesses (Ratio)
system.cpu.l2cache.demandMissRate::switch_cpus.inst     0.411829                       # miss rate for demand accesses (Ratio)
system.cpu.l2cache.demandMissRate::switch_cpus.data     0.783776                       # miss rate for demand accesses (Ratio)
system.cpu.l2cache.demandMissRate::total     0.777804                       # miss rate for demand accesses (Ratio)
system.cpu.l2cache.overallMissRate::switch_cpus.mmu.dtb_walker     0.150728                       # miss rate for overall accesses (Ratio)
system.cpu.l2cache.overallMissRate::switch_cpus.mmu.itb_walker     0.162414                       # miss rate for overall accesses (Ratio)
system.cpu.l2cache.overallMissRate::switch_cpus.inst     0.411829                       # miss rate for overall accesses (Ratio)
system.cpu.l2cache.overallMissRate::switch_cpus.data     0.783776                       # miss rate for overall accesses (Ratio)
system.cpu.l2cache.overallMissRate::total     0.777804                       # miss rate for overall accesses (Ratio)
system.cpu.l2cache.demandAvgMissLatency::switch_cpus.mmu.dtb_walker 101014.674076                       # average overall miss latency in ticks ((Tick/Count))
system.cpu.l2cache.demandAvgMissLatency::switch_cpus.mmu.itb_walker 64157.811884                       # average overall miss latency in ticks ((Tick/Count))
system.cpu.l2cache.demandAvgMissLatency::switch_cpus.inst 100435.550181                       # average overall miss latency in ticks ((Tick/Count))
system.cpu.l2cache.demandAvgMissLatency::switch_cpus.data 101181.061604                       # average overall miss latency in ticks ((Tick/Count))
system.cpu.l2cache.demandAvgMissLatency::total 101173.398064                       # average overall miss latency in ticks ((Tick/Count))
system.cpu.l2cache.overallAvgMissLatency::switch_cpus.mmu.dtb_walker 101014.674076                       # average overall miss latency ((Tick/Count))
system.cpu.l2cache.overallAvgMissLatency::switch_cpus.mmu.itb_walker 64157.811884                       # average overall miss latency ((Tick/Count))
system.cpu.l2cache.overallAvgMissLatency::switch_cpus.inst 100435.550181                       # average overall miss latency ((Tick/Count))
system.cpu.l2cache.overallAvgMissLatency::switch_cpus.data 101181.061604                       # average overall miss latency ((Tick/Count))
system.cpu.l2cache.overallAvgMissLatency::total 101173.398064                       # average overall miss latency ((Tick/Count))
system.cpu.l2cache.blockedCycles::no_mshrs            0                       # number of cycles access was blocked (Cycle)
system.cpu.l2cache.blockedCycles::no_targets            0                       # number of cycles access was blocked (Cycle)
system.cpu.l2cache.blockedCauses::no_mshrs            0                       # number of times access was blocked (Count)
system.cpu.l2cache.blockedCauses::no_targets            0                       # number of times access was blocked (Count)
system.cpu.l2cache.avgBlocked::no_mshrs           nan                       # average number of cycles each access was blocked ((Cycle/Count))
system.cpu.l2cache.avgBlocked::no_targets          nan                       # average number of cycles each access was blocked ((Cycle/Count))
system.cpu.l2cache.writebacks::writebacks     90850517                       # number of writebacks (Count)
system.cpu.l2cache.writebacks::total         90850517                       # number of writebacks (Count)
system.cpu.l2cache.demandMshrHits::switch_cpus.mmu.itb_walker            7                       # number of demand (read+write) MSHR hits (Count)
system.cpu.l2cache.demandMshrHits::total            7                       # number of demand (read+write) MSHR hits (Count)
system.cpu.l2cache.overallMshrHits::switch_cpus.mmu.itb_walker            7                       # number of overall MSHR hits (Count)
system.cpu.l2cache.overallMshrHits::total            7                       # number of overall MSHR hits (Count)
system.cpu.l2cache.demandMshrMisses::switch_cpus.mmu.dtb_walker        22809                       # number of demand (read+write) MSHR misses (Count)
system.cpu.l2cache.demandMshrMisses::switch_cpus.mmu.itb_walker         3443                       # number of demand (read+write) MSHR misses (Count)
system.cpu.l2cache.demandMshrMisses::switch_cpus.inst       145943                       # number of demand (read+write) MSHR misses (Count)
system.cpu.l2cache.demandMshrMisses::switch_cpus.data     31187653                       # number of demand (read+write) MSHR misses (Count)
system.cpu.l2cache.demandMshrMisses::total     31359848                       # number of demand (read+write) MSHR misses (Count)
system.cpu.l2cache.overallMshrMisses::switch_cpus.mmu.dtb_walker        22809                       # number of overall MSHR misses (Count)
system.cpu.l2cache.overallMshrMisses::switch_cpus.mmu.itb_walker         3443                       # number of overall MSHR misses (Count)
system.cpu.l2cache.overallMshrMisses::switch_cpus.inst       145943                       # number of overall MSHR misses (Count)
system.cpu.l2cache.overallMshrMisses::switch_cpus.data     31187653                       # number of overall MSHR misses (Count)
system.cpu.l2cache.overallMshrMisses::total     31359848                       # number of overall MSHR misses (Count)
system.cpu.l2cache.overallMshrUncacheable::switch_cpus.data        54265                       # number of overall MSHR uncacheable misses (Count)
system.cpu.l2cache.overallMshrUncacheable::total        54265                       # number of overall MSHR uncacheable misses (Count)
system.cpu.l2cache.demandMshrMissLatency::switch_cpus.mmu.dtb_walker   2075953701                       # number of demand (read+write) MSHR miss ticks (Tick)
system.cpu.l2cache.demandMshrMissLatency::switch_cpus.mmu.itb_walker    186540956                       # number of demand (read+write) MSHR miss ticks (Tick)
system.cpu.l2cache.demandMshrMissLatency::switch_cpus.inst  13198435500                       # number of demand (read+write) MSHR miss ticks (Tick)
system.cpu.l2cache.demandMshrMissLatency::switch_cpus.data 2843723309480                       # number of demand (read+write) MSHR miss ticks (Tick)
system.cpu.l2cache.demandMshrMissLatency::total 2859184239637                       # number of demand (read+write) MSHR miss ticks (Tick)
system.cpu.l2cache.overallMshrMissLatency::switch_cpus.mmu.dtb_walker   2075953701                       # number of overall MSHR miss ticks (Tick)
system.cpu.l2cache.overallMshrMissLatency::switch_cpus.mmu.itb_walker    186540956                       # number of overall MSHR miss ticks (Tick)
system.cpu.l2cache.overallMshrMissLatency::switch_cpus.inst  13198435500                       # number of overall MSHR miss ticks (Tick)
system.cpu.l2cache.overallMshrMissLatency::switch_cpus.data 2843723309480                       # number of overall MSHR miss ticks (Tick)
system.cpu.l2cache.overallMshrMissLatency::total 2859184239637                       # number of overall MSHR miss ticks (Tick)
system.cpu.l2cache.overallMshrUncacheableLatency::switch_cpus.data   2590507500                       # number of overall MSHR uncacheable ticks (Tick)
system.cpu.l2cache.overallMshrUncacheableLatency::total   2590507500                       # number of overall MSHR uncacheable ticks (Tick)
system.cpu.l2cache.demandMshrMissRate::switch_cpus.mmu.dtb_walker     0.150728                       # mshr miss ratio for demand accesses (Ratio)
system.cpu.l2cache.demandMshrMissRate::switch_cpus.mmu.itb_walker     0.162085                       # mshr miss ratio for demand accesses (Ratio)
system.cpu.l2cache.demandMshrMissRate::switch_cpus.inst     0.411829                       # mshr miss ratio for demand accesses (Ratio)
system.cpu.l2cache.demandMshrMissRate::switch_cpus.data     0.783776                       # mshr miss ratio for demand accesses (Ratio)
system.cpu.l2cache.demandMshrMissRate::total     0.777804                       # mshr miss ratio for demand accesses (Ratio)
system.cpu.l2cache.overallMshrMissRate::switch_cpus.mmu.dtb_walker     0.150728                       # mshr miss ratio for overall accesses (Ratio)
system.cpu.l2cache.overallMshrMissRate::switch_cpus.mmu.itb_walker     0.162085                       # mshr miss ratio for overall accesses (Ratio)
system.cpu.l2cache.overallMshrMissRate::switch_cpus.inst     0.411829                       # mshr miss ratio for overall accesses (Ratio)
system.cpu.l2cache.overallMshrMissRate::switch_cpus.data     0.783776                       # mshr miss ratio for overall accesses (Ratio)
system.cpu.l2cache.overallMshrMissRate::total     0.777804                       # mshr miss ratio for overall accesses (Ratio)
system.cpu.l2cache.demandAvgMshrMissLatency::switch_cpus.mmu.dtb_walker 91014.674076                       # average overall mshr miss latency ((Tick/Count))
system.cpu.l2cache.demandAvgMshrMissLatency::switch_cpus.mmu.itb_walker 54179.772292                       # average overall mshr miss latency ((Tick/Count))
system.cpu.l2cache.demandAvgMshrMissLatency::switch_cpus.inst 90435.550181                       # average overall mshr miss latency ((Tick/Count))
system.cpu.l2cache.demandAvgMshrMissLatency::switch_cpus.data 91181.061604                       # average overall mshr miss latency ((Tick/Count))
system.cpu.l2cache.demandAvgMshrMissLatency::total 91173.408737                       # average overall mshr miss latency ((Tick/Count))
system.cpu.l2cache.overallAvgMshrMissLatency::switch_cpus.mmu.dtb_walker 91014.674076                       # average overall mshr miss latency ((Tick/Count))
system.cpu.l2cache.overallAvgMshrMissLatency::switch_cpus.mmu.itb_walker 54179.772292                       # average overall mshr miss latency ((Tick/Count))
system.cpu.l2cache.overallAvgMshrMissLatency::switch_cpus.inst 90435.550181                       # average overall mshr miss latency ((Tick/Count))
system.cpu.l2cache.overallAvgMshrMissLatency::switch_cpus.data 91181.061604                       # average overall mshr miss latency ((Tick/Count))
system.cpu.l2cache.overallAvgMshrMissLatency::total 91173.408737                       # average overall mshr miss latency ((Tick/Count))
system.cpu.l2cache.overallAvgMshrUncacheableLatency::switch_cpus.data 47738.090850                       # average overall mshr uncacheable latency ((Tick/Count))
system.cpu.l2cache.overallAvgMshrUncacheableLatency::total 47738.090850                       # average overall mshr uncacheable latency ((Tick/Count))
system.cpu.l2cache.replacements             112854105                       # number of replacements (Count)
system.cpu.l2cache.CleanEvict.mshrMisses::writebacks        33681                       # number of CleanEvict MSHR misses (Count)
system.cpu.l2cache.CleanEvict.mshrMisses::total        33681                       # number of CleanEvict MSHR misses (Count)
system.cpu.l2cache.CleanEvict.mshrMissRate::writebacks          inf                       # mshr miss rate for CleanEvict accesses (Ratio)
system.cpu.l2cache.CleanEvict.mshrMissRate::total          inf                       # mshr miss rate for CleanEvict accesses (Ratio)
system.cpu.l2cache.InvalidateReq.hits::switch_cpus.data        10773                       # number of InvalidateReq hits (Count)
system.cpu.l2cache.InvalidateReq.hits::total        10773                       # number of InvalidateReq hits (Count)
system.cpu.l2cache.InvalidateReq.misses::switch_cpus.data     81356922                       # number of InvalidateReq misses (Count)
system.cpu.l2cache.InvalidateReq.misses::total     81356922                       # number of InvalidateReq misses (Count)
system.cpu.l2cache.InvalidateReq.accesses::switch_cpus.data     81367695                       # number of InvalidateReq accesses(hits+misses) (Count)
system.cpu.l2cache.InvalidateReq.accesses::total     81367695                       # number of InvalidateReq accesses(hits+misses) (Count)
system.cpu.l2cache.InvalidateReq.missRate::switch_cpus.data     0.999868                       # miss rate for InvalidateReq accesses (Ratio)
system.cpu.l2cache.InvalidateReq.missRate::total     0.999868                       # miss rate for InvalidateReq accesses (Ratio)
system.cpu.l2cache.InvalidateReq.mshrMisses::switch_cpus.data     81356922                       # number of InvalidateReq MSHR misses (Count)
system.cpu.l2cache.InvalidateReq.mshrMisses::total     81356922                       # number of InvalidateReq MSHR misses (Count)
system.cpu.l2cache.InvalidateReq.mshrMissLatency::switch_cpus.data 2384572515500                       # number of InvalidateReq MSHR miss ticks (Tick)
system.cpu.l2cache.InvalidateReq.mshrMissLatency::total 2384572515500                       # number of InvalidateReq MSHR miss ticks (Tick)
system.cpu.l2cache.InvalidateReq.mshrMissRate::switch_cpus.data     0.999868                       # mshr miss rate for InvalidateReq accesses (Ratio)
system.cpu.l2cache.InvalidateReq.mshrMissRate::total     0.999868                       # mshr miss rate for InvalidateReq accesses (Ratio)
system.cpu.l2cache.InvalidateReq.avgMshrMissLatency::switch_cpus.data 29310.013910                       # average InvalidateReq mshr miss latency ((Tick/Count))
system.cpu.l2cache.InvalidateReq.avgMshrMissLatency::total 29310.013910                       # average InvalidateReq mshr miss latency ((Tick/Count))
system.cpu.l2cache.ReadCleanReq.hits::switch_cpus.inst       208435                       # number of ReadCleanReq hits (Count)
system.cpu.l2cache.ReadCleanReq.hits::total       208435                       # number of ReadCleanReq hits (Count)
system.cpu.l2cache.ReadCleanReq.misses::switch_cpus.inst       145943                       # number of ReadCleanReq misses (Count)
system.cpu.l2cache.ReadCleanReq.misses::total       145943                       # number of ReadCleanReq misses (Count)
system.cpu.l2cache.ReadCleanReq.missLatency::switch_cpus.inst  14657865500                       # number of ReadCleanReq miss ticks (Tick)
system.cpu.l2cache.ReadCleanReq.missLatency::total  14657865500                       # number of ReadCleanReq miss ticks (Tick)
system.cpu.l2cache.ReadCleanReq.accesses::switch_cpus.inst       354378                       # number of ReadCleanReq accesses(hits+misses) (Count)
system.cpu.l2cache.ReadCleanReq.accesses::total       354378                       # number of ReadCleanReq accesses(hits+misses) (Count)
system.cpu.l2cache.ReadCleanReq.missRate::switch_cpus.inst     0.411829                       # miss rate for ReadCleanReq accesses (Ratio)
system.cpu.l2cache.ReadCleanReq.missRate::total     0.411829                       # miss rate for ReadCleanReq accesses (Ratio)
system.cpu.l2cache.ReadCleanReq.avgMissLatency::switch_cpus.inst 100435.550181                       # average ReadCleanReq miss latency ((Tick/Count))
system.cpu.l2cache.ReadCleanReq.avgMissLatency::total 100435.550181                       # average ReadCleanReq miss latency ((Tick/Count))
system.cpu.l2cache.ReadCleanReq.mshrMisses::switch_cpus.inst       145943                       # number of ReadCleanReq MSHR misses (Count)
system.cpu.l2cache.ReadCleanReq.mshrMisses::total       145943                       # number of ReadCleanReq MSHR misses (Count)
system.cpu.l2cache.ReadCleanReq.mshrMissLatency::switch_cpus.inst  13198435500                       # number of ReadCleanReq MSHR miss ticks (Tick)
system.cpu.l2cache.ReadCleanReq.mshrMissLatency::total  13198435500                       # number of ReadCleanReq MSHR miss ticks (Tick)
system.cpu.l2cache.ReadCleanReq.mshrMissRate::switch_cpus.inst     0.411829                       # mshr miss rate for ReadCleanReq accesses (Ratio)
system.cpu.l2cache.ReadCleanReq.mshrMissRate::total     0.411829                       # mshr miss rate for ReadCleanReq accesses (Ratio)
system.cpu.l2cache.ReadCleanReq.avgMshrMissLatency::switch_cpus.inst 90435.550181                       # average ReadCleanReq mshr miss latency ((Tick/Count))
system.cpu.l2cache.ReadCleanReq.avgMshrMissLatency::total 90435.550181                       # average ReadCleanReq mshr miss latency ((Tick/Count))
system.cpu.l2cache.ReadExReq.hits::switch_cpus.data       292479                       # number of ReadExReq hits (Count)
system.cpu.l2cache.ReadExReq.hits::total       292479                       # number of ReadExReq hits (Count)
system.cpu.l2cache.ReadExReq.misses::switch_cpus.data      3675184                       # number of ReadExReq misses (Count)
system.cpu.l2cache.ReadExReq.misses::total      3675184                       # number of ReadExReq misses (Count)
system.cpu.l2cache.ReadExReq.missLatency::switch_cpus.data 331028138480                       # number of ReadExReq miss ticks (Tick)
system.cpu.l2cache.ReadExReq.missLatency::total 331028138480                       # number of ReadExReq miss ticks (Tick)
system.cpu.l2cache.ReadExReq.accesses::switch_cpus.data      3967663                       # number of ReadExReq accesses(hits+misses) (Count)
system.cpu.l2cache.ReadExReq.accesses::total      3967663                       # number of ReadExReq accesses(hits+misses) (Count)
system.cpu.l2cache.ReadExReq.missRate::switch_cpus.data     0.926284                       # miss rate for ReadExReq accesses (Ratio)
system.cpu.l2cache.ReadExReq.missRate::total     0.926284                       # miss rate for ReadExReq accesses (Ratio)
system.cpu.l2cache.ReadExReq.avgMissLatency::switch_cpus.data 90071.174254                       # average ReadExReq miss latency ((Tick/Count))
system.cpu.l2cache.ReadExReq.avgMissLatency::total 90071.174254                       # average ReadExReq miss latency ((Tick/Count))
system.cpu.l2cache.ReadExReq.mshrMisses::switch_cpus.data      3675184                       # number of ReadExReq MSHR misses (Count)
system.cpu.l2cache.ReadExReq.mshrMisses::total      3675184                       # number of ReadExReq MSHR misses (Count)
system.cpu.l2cache.ReadExReq.mshrMissLatency::switch_cpus.data 294276298480                       # number of ReadExReq MSHR miss ticks (Tick)
system.cpu.l2cache.ReadExReq.mshrMissLatency::total 294276298480                       # number of ReadExReq MSHR miss ticks (Tick)
system.cpu.l2cache.ReadExReq.mshrMissRate::switch_cpus.data     0.926284                       # mshr miss rate for ReadExReq accesses (Ratio)
system.cpu.l2cache.ReadExReq.mshrMissRate::total     0.926284                       # mshr miss rate for ReadExReq accesses (Ratio)
system.cpu.l2cache.ReadExReq.avgMshrMissLatency::switch_cpus.data 80071.174254                       # average ReadExReq mshr miss latency ((Tick/Count))
system.cpu.l2cache.ReadExReq.avgMshrMissLatency::total 80071.174254                       # average ReadExReq mshr miss latency ((Tick/Count))
system.cpu.l2cache.ReadReq.hits::switch_cpus.mmu.dtb_walker       128517                       # number of ReadReq hits (Count)
system.cpu.l2cache.ReadReq.hits::switch_cpus.mmu.itb_walker        17792                       # number of ReadReq hits (Count)
system.cpu.l2cache.ReadReq.hits::total         146309                       # number of ReadReq hits (Count)
system.cpu.l2cache.ReadReq.misses::switch_cpus.mmu.dtb_walker        22809                       # number of ReadReq misses (Count)
system.cpu.l2cache.ReadReq.misses::switch_cpus.mmu.itb_walker         3450                       # number of ReadReq misses (Count)
system.cpu.l2cache.ReadReq.misses::total        26259                       # number of ReadReq misses (Count)
system.cpu.l2cache.ReadReq.missLatency::switch_cpus.mmu.dtb_walker   2304043701                       # number of ReadReq miss ticks (Tick)
system.cpu.l2cache.ReadReq.missLatency::switch_cpus.mmu.itb_walker    221344451                       # number of ReadReq miss ticks (Tick)
system.cpu.l2cache.ReadReq.missLatency::total   2525388152                       # number of ReadReq miss ticks (Tick)
system.cpu.l2cache.ReadReq.accesses::switch_cpus.mmu.dtb_walker       151326                       # number of ReadReq accesses(hits+misses) (Count)
system.cpu.l2cache.ReadReq.accesses::switch_cpus.mmu.itb_walker        21242                       # number of ReadReq accesses(hits+misses) (Count)
system.cpu.l2cache.ReadReq.accesses::total       172568                       # number of ReadReq accesses(hits+misses) (Count)
system.cpu.l2cache.ReadReq.missRate::switch_cpus.mmu.dtb_walker     0.150728                       # miss rate for ReadReq accesses (Ratio)
system.cpu.l2cache.ReadReq.missRate::switch_cpus.mmu.itb_walker     0.162414                       # miss rate for ReadReq accesses (Ratio)
system.cpu.l2cache.ReadReq.missRate::total     0.152166                       # miss rate for ReadReq accesses (Ratio)
system.cpu.l2cache.ReadReq.avgMissLatency::switch_cpus.mmu.dtb_walker 101014.674076                       # average ReadReq miss latency ((Tick/Count))
system.cpu.l2cache.ReadReq.avgMissLatency::switch_cpus.mmu.itb_walker 64157.811884                       # average ReadReq miss latency ((Tick/Count))
system.cpu.l2cache.ReadReq.avgMissLatency::total 96172.289577                       # average ReadReq miss latency ((Tick/Count))
system.cpu.l2cache.ReadReq.mshrHits::switch_cpus.mmu.itb_walker            7                       # number of ReadReq MSHR hits (Count)
system.cpu.l2cache.ReadReq.mshrHits::total            7                       # number of ReadReq MSHR hits (Count)
system.cpu.l2cache.ReadReq.mshrMisses::switch_cpus.mmu.dtb_walker        22809                       # number of ReadReq MSHR misses (Count)
system.cpu.l2cache.ReadReq.mshrMisses::switch_cpus.mmu.itb_walker         3443                       # number of ReadReq MSHR misses (Count)
system.cpu.l2cache.ReadReq.mshrMisses::total        26252                       # number of ReadReq MSHR misses (Count)
system.cpu.l2cache.ReadReq.mshrUncacheable::switch_cpus.data        50186                       # number of ReadReq MSHR uncacheable (Count)
system.cpu.l2cache.ReadReq.mshrUncacheable::total        50186                       # number of ReadReq MSHR uncacheable (Count)
system.cpu.l2cache.ReadReq.mshrMissLatency::switch_cpus.mmu.dtb_walker   2075953701                       # number of ReadReq MSHR miss ticks (Tick)
system.cpu.l2cache.ReadReq.mshrMissLatency::switch_cpus.mmu.itb_walker    186540956                       # number of ReadReq MSHR miss ticks (Tick)
system.cpu.l2cache.ReadReq.mshrMissLatency::total   2262494657                       # number of ReadReq MSHR miss ticks (Tick)
system.cpu.l2cache.ReadReq.mshrUncacheableLatency::switch_cpus.data   2590507500                       # number of ReadReq MSHR uncacheable ticks (Tick)
system.cpu.l2cache.ReadReq.mshrUncacheableLatency::total   2590507500                       # number of ReadReq MSHR uncacheable ticks (Tick)
system.cpu.l2cache.ReadReq.mshrMissRate::switch_cpus.mmu.dtb_walker     0.150728                       # mshr miss rate for ReadReq accesses (Ratio)
system.cpu.l2cache.ReadReq.mshrMissRate::switch_cpus.mmu.itb_walker     0.162085                       # mshr miss rate for ReadReq accesses (Ratio)
system.cpu.l2cache.ReadReq.mshrMissRate::total     0.152126                       # mshr miss rate for ReadReq accesses (Ratio)
system.cpu.l2cache.ReadReq.avgMshrMissLatency::switch_cpus.mmu.dtb_walker 91014.674076                       # average ReadReq mshr miss latency ((Tick/Count))
system.cpu.l2cache.ReadReq.avgMshrMissLatency::switch_cpus.mmu.itb_walker 54179.772292                       # average ReadReq mshr miss latency ((Tick/Count))
system.cpu.l2cache.ReadReq.avgMshrMissLatency::total 86183.706270                       # average ReadReq mshr miss latency ((Tick/Count))
system.cpu.l2cache.ReadReq.avgMshrUncacheableLatency::switch_cpus.data 51618.130554                       # average ReadReq mshr uncacheable latency ((Tick/Count))
system.cpu.l2cache.ReadReq.avgMshrUncacheableLatency::total 51618.130554                       # average ReadReq mshr uncacheable latency ((Tick/Count))
system.cpu.l2cache.ReadSharedReq.hits::switch_cpus.data      8311386                       # number of ReadSharedReq hits (Count)
system.cpu.l2cache.ReadSharedReq.hits::total      8311386                       # number of ReadSharedReq hits (Count)
system.cpu.l2cache.ReadSharedReq.misses::switch_cpus.data     27512469                       # number of ReadSharedReq misses (Count)
system.cpu.l2cache.ReadSharedReq.misses::total     27512469                       # number of ReadSharedReq misses (Count)
system.cpu.l2cache.ReadSharedReq.missLatency::switch_cpus.data 2824571701000                       # number of ReadSharedReq miss ticks (Tick)
system.cpu.l2cache.ReadSharedReq.missLatency::total 2824571701000                       # number of ReadSharedReq miss ticks (Tick)
system.cpu.l2cache.ReadSharedReq.accesses::switch_cpus.data     35823855                       # number of ReadSharedReq accesses(hits+misses) (Count)
system.cpu.l2cache.ReadSharedReq.accesses::total     35823855                       # number of ReadSharedReq accesses(hits+misses) (Count)
system.cpu.l2cache.ReadSharedReq.missRate::switch_cpus.data     0.767993                       # miss rate for ReadSharedReq accesses (Ratio)
system.cpu.l2cache.ReadSharedReq.missRate::total     0.767993                       # miss rate for ReadSharedReq accesses (Ratio)
system.cpu.l2cache.ReadSharedReq.avgMissLatency::switch_cpus.data 102665.147973                       # average ReadSharedReq miss latency ((Tick/Count))
system.cpu.l2cache.ReadSharedReq.avgMissLatency::total 102665.147973                       # average ReadSharedReq miss latency ((Tick/Count))
system.cpu.l2cache.ReadSharedReq.mshrMisses::switch_cpus.data     27512469                       # number of ReadSharedReq MSHR misses (Count)
system.cpu.l2cache.ReadSharedReq.mshrMisses::total     27512469                       # number of ReadSharedReq MSHR misses (Count)
system.cpu.l2cache.ReadSharedReq.mshrMissLatency::switch_cpus.data 2549447011000                       # number of ReadSharedReq MSHR miss ticks (Tick)
system.cpu.l2cache.ReadSharedReq.mshrMissLatency::total 2549447011000                       # number of ReadSharedReq MSHR miss ticks (Tick)
system.cpu.l2cache.ReadSharedReq.mshrMissRate::switch_cpus.data     0.767993                       # mshr miss rate for ReadSharedReq accesses (Ratio)
system.cpu.l2cache.ReadSharedReq.mshrMissRate::total     0.767993                       # mshr miss rate for ReadSharedReq accesses (Ratio)
system.cpu.l2cache.ReadSharedReq.avgMshrMissLatency::switch_cpus.data 92665.147973                       # average ReadSharedReq mshr miss latency ((Tick/Count))
system.cpu.l2cache.ReadSharedReq.avgMshrMissLatency::total 92665.147973                       # average ReadSharedReq mshr miss latency ((Tick/Count))
system.cpu.l2cache.SCUpgradeReq.hits::switch_cpus.data            3                       # number of SCUpgradeReq hits (Count)
system.cpu.l2cache.SCUpgradeReq.hits::total            3                       # number of SCUpgradeReq hits (Count)
system.cpu.l2cache.SCUpgradeReq.accesses::switch_cpus.data            3                       # number of SCUpgradeReq accesses(hits+misses) (Count)
system.cpu.l2cache.SCUpgradeReq.accesses::total            3                       # number of SCUpgradeReq accesses(hits+misses) (Count)
system.cpu.l2cache.UpgradeReq.hits::switch_cpus.data       476250                       # number of UpgradeReq hits (Count)
system.cpu.l2cache.UpgradeReq.hits::total       476250                       # number of UpgradeReq hits (Count)
system.cpu.l2cache.UpgradeReq.misses::switch_cpus.data          266                       # number of UpgradeReq misses (Count)
system.cpu.l2cache.UpgradeReq.misses::total          266                       # number of UpgradeReq misses (Count)
[...]
system.switch_cpus.mmu.itb_walker.pageSizes::4KiB         1684     97.85%     97.85% # Table walker page sizes translated (Count)
system.switch_cpus.mmu.itb_walker.pageSizes::2MiB           37      2.15%    100.00% # Table walker page sizes translated (Count)
system.switch_cpus.mmu.itb_walker.pageSizes::total         1721                       # Table walker page sizes translated (Count)
system.switch_cpus.mmu.itb_walker.requestOrigin_Requested::Data            0                       # Table walker requests started/completed, data/inst (Count)
system.switch_cpus.mmu.itb_walker.requestOrigin_Requested::Inst        22015                       # Table walker requests started/completed, data/inst (Count)
system.switch_cpus.mmu.itb_walker.requestOrigin_Requested::total        22015                       # Table walker requests started/completed, data/inst (Count)
system.switch_cpus.mmu.itb_walker.requestOrigin_Completed::Data            0                       # Table walker requests started/completed, data/inst (Count)
system.switch_cpus.mmu.itb_walker.requestOrigin_Completed::Inst         1721                       # Table walker requests started/completed, data/inst (Count)
system.switch_cpus.mmu.itb_walker.requestOrigin_Completed::total         1721                       # Table walker requests started/completed, data/inst (Count)
system.switch_cpus.mmu.itb_walker.requestOrigin::total        23736                       # Table walker requests started/completed, data/inst (Count)
system.switch_cpus.mmu.itb_walker.power_state.pwrStateResidencyTicks::UNDEFINED 23892681666500                       # Cumulative time (in ticks) in various power states (Tick)
system.switch_cpus.mmu.l2_shared.partialHits      1206297                       # partial translation hits (Count)
system.switch_cpus.mmu.l2_shared.instHits        23015                       # Inst hits (Count)
system.switch_cpus.mmu.l2_shared.instMisses          349                       # Inst misses (Count)
system.switch_cpus.mmu.l2_shared.readHits       783006                       # Read hits (Count)
system.switch_cpus.mmu.l2_shared.readMisses       128435                       # Read misses (Count)
system.switch_cpus.mmu.l2_shared.writeHits      2021645                       # Write hits (Count)
system.switch_cpus.mmu.l2_shared.writeMisses       143865                       # Write misses (Count)
system.switch_cpus.mmu.l2_shared.inserts        66895                       # Number of times an entry is inserted into the TLB (Count)
system.switch_cpus.mmu.l2_shared.flushTlb            2                       # Number of times complete TLB was flushed (Count)
system.switch_cpus.mmu.l2_shared.flushTlbMva            0                       # Number of times TLB was flushed by MVA (Count)
system.switch_cpus.mmu.l2_shared.flushTlbMvaAsid         1471                       # Number of times TLB was flushed by MVA & ASID (Count)
system.switch_cpus.mmu.l2_shared.flushTlbAsid           14                       # Number of times TLB was flushed by ASID (Count)
system.switch_cpus.mmu.l2_shared.flushedEntries         8275                       # Number of entries that have been flushed from TLB (Count)
system.switch_cpus.mmu.l2_shared.readAccesses       911441                       # Read accesses (Count)
system.switch_cpus.mmu.l2_shared.writeAccesses      2165510                       # Write accesses (Count)
system.switch_cpus.mmu.l2_shared.instAccesses        23364                       # Inst accesses (Count)
system.switch_cpus.mmu.l2_shared.hits         2827666                       # Total TLB (inst and data) hits (Count)
system.switch_cpus.mmu.l2_shared.misses        272649                       # Total TLB (inst and data) misses (Count)
system.switch_cpus.mmu.l2_shared.accesses      3100315                       # Total TLB (inst and data) accesses (Count)
system.switch_cpus.mmu.stage2_dtb.readHits            0                       # Read hits (Count)
system.switch_cpus.mmu.stage2_dtb.readMisses            0                       # Read misses (Count)
system.switch_cpus.mmu.stage2_dtb.writeHits            0                       # Write hits (Count)
system.switch_cpus.mmu.stage2_dtb.writeMisses            0                       # Write misses (Count)
system.switch_cpus.mmu.stage2_dtb.inserts            0                       # Number of times an entry is inserted into the TLB (Count)
system.switch_cpus.mmu.stage2_dtb.flushTlb            2                       # Number of times complete TLB was flushed (Count)
system.switch_cpus.mmu.stage2_dtb.flushTlbMva            0                       # Number of times TLB was flushed by MVA (Count)
system.switch_cpus.mmu.stage2_dtb.flushTlbMvaAsid            0                       # Number of times TLB was flushed by MVA & ASID (Count)
system.switch_cpus.mmu.stage2_dtb.flushTlbAsid            0                       # Number of times TLB was flushed by ASID (Count)
system.switch_cpus.mmu.stage2_dtb.flushedEntries            0                       # Number of entries that have been flushed from TLB (Count)
system.switch_cpus.mmu.stage2_dtb.readAccesses            0                       # Read accesses (Count)
system.switch_cpus.mmu.stage2_dtb.writeAccesses            0                       # Write accesses (Count)
system.switch_cpus.mmu.stage2_dtb.hits              0                       # Total TLB (inst and data) hits (Count)
system.switch_cpus.mmu.stage2_dtb.misses            0                       # Total TLB (inst and data) misses (Count)
system.switch_cpus.mmu.stage2_dtb.accesses            0                       # Total TLB (inst and data) accesses (Count)
system.switch_cpus.mmu.stage2_dtb_walker.walks            0                       # Table walker walks requested (Count)
system.switch_cpus.mmu.stage2_dtb_walker.requestOrigin_Requested::Data            0                       # Table walker requests started/completed, data/inst (Count)
system.switch_cpus.mmu.stage2_dtb_walker.requestOrigin_Requested::Inst            0                       # Table walker requests started/completed, data/inst (Count)
system.switch_cpus.mmu.stage2_dtb_walker.requestOrigin_Requested::total            0                       # Table walker requests started/completed, data/inst (Count)
system.switch_cpus.mmu.stage2_dtb_walker.requestOrigin_Completed::Data            0                       # Table walker requests started/completed, data/inst (Count)
system.switch_cpus.mmu.stage2_dtb_walker.requestOrigin_Completed::Inst            0                       # Table walker requests started/completed, data/inst (Count)
system.switch_cpus.mmu.stage2_dtb_walker.requestOrigin_Completed::total            0                       # Table walker requests started/completed, data/inst (Count)
system.switch_cpus.mmu.stage2_dtb_walker.requestOrigin::total            0                       # Table walker requests started/completed, data/inst (Count)
system.switch_cpus.mmu.stage2_dtb_walker.power_state.pwrStateResidencyTicks::UNDEFINED 23892681666500                       # Cumulative time (in ticks) in various power states (Tick)
system.switch_cpus.mmu.stage2_itb.instHits            0                       # Inst hits (Count)
system.switch_cpus.mmu.stage2_itb.instMisses            0                       # Inst misses (Count)
system.switch_cpus.mmu.stage2_itb.inserts            0                       # Number of times an entry is inserted into the TLB (Count)
system.switch_cpus.mmu.stage2_itb.flushTlb            2                       # Number of times complete TLB was flushed (Count)
system.switch_cpus.mmu.stage2_itb.flushTlbMva            0                       # Number of times TLB was flushed by MVA (Count)
system.switch_cpus.mmu.stage2_itb.flushTlbMvaAsid            0                       # Number of times TLB was flushed by MVA & ASID (Count)
system.switch_cpus.mmu.stage2_itb.flushTlbAsid            0                       # Number of times TLB was flushed by ASID (Count)
system.switch_cpus.mmu.stage2_itb.flushedEntries            0                       # Number of entries that have been flushed from TLB (Count)
system.switch_cpus.mmu.stage2_itb.instAccesses            0                       # Inst accesses (Count)
system.switch_cpus.mmu.stage2_itb.hits              0                       # Total TLB (inst and data) hits (Count)
system.switch_cpus.mmu.stage2_itb.misses            0                       # Total TLB (inst and data) misses (Count)
system.switch_cpus.mmu.stage2_itb.accesses            0                       # Total TLB (inst and data) accesses (Count)
system.switch_cpus.mmu.stage2_itb_walker.walks            0                       # Table walker walks requested (Count)
system.switch_cpus.mmu.stage2_itb_walker.requestOrigin_Requested::Data            0                       # Table walker requests started/completed, data/inst (Count)
system.switch_cpus.mmu.stage2_itb_walker.requestOrigin_Requested::Inst            0                       # Table walker requests started/completed, data/inst (Count)
system.switch_cpus.mmu.stage2_itb_walker.requestOrigin_Requested::total            0                       # Table walker requests started/completed, data/inst (Count)
system.switch_cpus.mmu.stage2_itb_walker.requestOrigin_Completed::Data            0                       # Table walker requests started/completed, data/inst (Count)
system.switch_cpus.mmu.stage2_itb_walker.requestOrigin_Completed::Inst            0                       # Table walker requests started/completed, data/inst (Count)
system.switch_cpus.mmu.stage2_itb_walker.requestOrigin_Completed::total            0                       # Table walker requests started/completed, data/inst (Count)
system.switch_cpus.mmu.stage2_itb_walker.requestOrigin::total            0                       # Table walker requests started/completed, data/inst (Count)
system.switch_cpus.mmu.stage2_itb_walker.power_state.pwrStateResidencyTicks::UNDEFINED 23892681666500                       # Cumulative time (in ticks) in various power states (Tick)
system.switch_cpus.power_state.numTransitions           15                       # Number of power state transitions (Count)
system.switch_cpus.power_state.ticksClkGated::samples            7                       # Distribution of time spent in the clock gated state (Tick)
system.switch_cpus.power_state.ticksClkGated::mean 19427341154.285713                       # Distribution of time spent in the clock gated state (Tick)
system.switch_cpus.power_state.ticksClkGated::stdev 20579525564.462357                       # Distribution of time spent in the clock gated state (Tick)
system.switch_cpus.power_state.ticksClkGated::1000-5e+10            7    100.00%    100.00% # Distribution of time spent in the clock gated state (Tick)
system.switch_cpus.power_state.ticksClkGated::min_value   2155836396                       # Distribution of time spent in the clock gated state (Tick)
system.switch_cpus.power_state.ticksClkGated::max_value  45990315308                       # Distribution of time spent in the clock gated state (Tick)
system.switch_cpus.power_state.ticksClkGated::total            7                       # Distribution of time spent in the clock gated state (Tick)
system.switch_cpus.power_state.pwrStateResidencyTicks::ON 2046988624670                       # Cumulative time (in ticks) in various power states (Tick)
system.switch_cpus.power_state.pwrStateResidencyTicks::CLK_GATED 135991388080                       # Cumulative time (in ticks) in various power states (Tick)
system.switch_cpus.power_state.pwrStateResidencyTicks::OFF 21709701653750                       # Cumulative time (in ticks) in various power states (Tick)
system.switch_cpus.rename.squashCycles       32569878                       # Number of cycles rename is squashing (Cycle)
system.switch_cpus.rename.idleCycles        648977624                       # Number of cycles rename is idle (Cycle)
system.switch_cpus.rename.blockCycles      2429515174                       # Number of cycles rename is blocking (Cycle)
system.switch_cpus.rename.serializeStallCycles    530659001                       # count of cycles rename stalled for serializing inst (Cycle)
system.switch_cpus.rename.runCycles         969641124                       # Number of cycles rename is running (Cycle)
system.switch_cpus.rename.unblockCycles    1385636389                       # Number of cycles rename is unblocking (Cycle)
system.switch_cpus.rename.renamedInsts     6033970492                       # Number of instructions processed by rename (Count)
system.switch_cpus.rename.ROBFullEvents       2195767                       # Number of times rename has blocked due to ROB full (Count)
system.switch_cpus.rename.IQFullEvents      140769955                       # Number of times rename has blocked due to IQ full (Count)
system.switch_cpus.rename.LQFullEvents      136988043                       # Number of times rename has blocked due to LQ full (Count)
system.switch_cpus.rename.SQFullEvents     1085709848                       # Number of times rename has blocked due to SQ full (Count)
system.switch_cpus.rename.renamedOperands   6078373632                       # Number of destination operands rename has renamed (Count)
system.switch_cpus.rename.lookups          9915353332                       # Number of register rename lookups that rename has made (Count)
system.switch_cpus.rename.intLookups       6796148779                       # Number of integer rename lookups (Count)
system.switch_cpus.rename.vecLookups        107548986                       # Number of vector rename lookups (Count)
system.switch_cpus.rename.committedMaps    4545376862                       # Number of HB maps that are committed (Count)
system.switch_cpus.rename.undoneMaps       1532996770                       # Number of HB maps that are undone due to squashing (Count)
system.switch_cpus.rename.serializing         5546620                       # count of serializing insts renamed (Count)
system.switch_cpus.rename.tempSerializing       241831                       # count of temporary serializing insts renamed (Count)
system.switch_cpus.rename.skidInsts         774366855                       # count of insts added to the skid buffer (Count)
system.switch_cpus.rob.reads              11337942236                       # The number of ROB reads (Count)
system.switch_cpus.rob.writes             11799615245                       # The number of ROB writes (Count)
system.switch_cpus.thread_0.numInsts       4027057507                       # Number of Instructions committed (Count)
system.switch_cpus.thread_0.numOps         4547149479                       # Number of Ops committed (Count)
system.switch_cpus.thread_0.numMemRefs              0                       # Number of Memory References (Count)
system.tollcbus.transDist::ReadReq             157392                       # Transaction distribution (Count)
system.tollcbus.transDist::ReadResp          27842056                       # Transaction distribution (Count)
system.tollcbus.transDist::WriteReq             26710                       # Transaction distribution (Count)
system.tollcbus.transDist::WriteResp            26710                       # Transaction distribution (Count)
system.tollcbus.transDist::WritebackDirty    118545308                       # Transaction distribution (Count)
system.tollcbus.transDist::CleanEvict        38471612                       # Transaction distribution (Count)
system.tollcbus.transDist::UpgradeReq             266                       # Transaction distribution (Count)
system.tollcbus.transDist::UpgradeResp            266                       # Transaction distribution (Count)
system.tollcbus.transDist::ReadExReq          3675184                       # Transaction distribution (Count)
system.tollcbus.transDist::ReadExResp         3675184                       # Transaction distribution (Count)
system.tollcbus.transDist::ReadSharedReq     27684664                       # Transaction distribution (Count)
system.tollcbus.transDist::InvalidateReq     81356922                       # Transaction distribution (Count)
system.tollcbus.transDist::InvalidateResp     81356922                       # Transaction distribution (Count)
system.tollcbus.pktCount_system.cpu.l2cache.mem_side_port::system.llc.cpu_side_port    338510229                       # Packet count per connected requestor and responder (Count)
system.tollcbus.pktSize_system.cpu.l2cache.mem_side_port::system.llc.cpu_side_port   7822131491                       # Cumulative packet size per connected requestor and responder (Byte)
system.tollcbus.snoops                       44308967                       # Total snoops (Count)
system.tollcbus.snoopTraffic               1772466624                       # Total snoop traffic (Byte)
system.tollcbus.snoopFanout::samples        157080299                       # Request fanout histogram (Count)
system.tollcbus.snoopFanout::mean            0.001101                       # Request fanout histogram (Count)
system.tollcbus.snoopFanout::stdev           0.033160                       # Request fanout histogram (Count)
system.tollcbus.snoopFanout::underflows             0      0.00%      0.00% # Request fanout histogram (Count)
system.tollcbus.snoopFanout::0              156907385     99.89%     99.89% # Request fanout histogram (Count)
system.tollcbus.snoopFanout::1                 172914      0.11%    100.00% # Request fanout histogram (Count)
system.tollcbus.snoopFanout::overflows              0      0.00%    100.00% # Request fanout histogram (Count)
system.tollcbus.snoopFanout::min_value              0                       # Request fanout histogram (Count)
system.tollcbus.snoopFanout::max_value              1                       # Request fanout histogram (Count)
system.tollcbus.snoopFanout::total          157080299                       # Request fanout histogram (Count)
system.tollcbus.power_state.pwrStateResidencyTicks::UNDEFINED 23892681666500                       # Cumulative time (in ticks) in various power states (Tick)
system.tollcbus.reqLayer0.occupancy      203595245812                       # Layer occupancy (ticks) (Tick)
system.tollcbus.reqLayer0.utilization             0.0                       # Layer utilization (Ratio)
system.tollcbus.respLayer0.occupancy      87770591500                       # Layer occupancy (ticks) (Tick)
system.tollcbus.respLayer0.utilization            0.0                       # Layer utilization (Ratio)
system.tollcbus.snoop_filter.totRequests    225428065                       # Total number of requests made to the snoop filter. (Count)
system.tollcbus.snoop_filter.hitSingleRequests    112711288                       # Number of requests hitting in the snoop filter with a single holder of the requested data. (Count)
system.tollcbus.snoop_filter.hitMultiRequests            0                       # Number of requests hitting in the snoop filter with multiple (>1) holders of the requested data. (Count)
system.tollcbus.snoop_filter.totSnoops         172914                       # Total number of snoops made to the snoop filter. (Count)
system.tollcbus.snoop_filter.hitSingleSnoops       172914                       # Number of snoops hitting in the snoop filter with a single holder of the requested data. (Count)
system.tollcbus.snoop_filter.hitMultiSnoops            0                       # Number of snoops hitting in the snoop filter with multiple (>1) holders of the requested data. (Count)
system.voltage_domain.voltage                       1                       # Voltage in Volts (Volt)
system.workload.inst.arm                            0                       # number of arm instructions executed (Count)
system.workload.inst.quiesce                        7                       # number of quiesce instructions executed (Count)

---------- End Simulation Statistics   ----------
