
---------- Begin Simulation Statistics ----------
simSeconds                                  21.670830                       # Number of seconds simulated (Second)
simTicks                                 21670830311500                       # Number of ticks simulated (Tick)
finalTick                                21670830311500                       # Number of ticks from beginning of simulation (restored from checkpoints and never reset) (Tick)
simFreq                                  1000000000000                       # The number of ticks per simulated second ((Tick/Second))
hostSeconds                                 208275.62                       # Real time elapsed on the host (Second)
hostTickRate                                104048809                       # The number of ticks simulated per host second (ticks/s) ((Tick/Second))
hostMemory                                   18091628                       # Number of bytes of host memory used (Byte)
simInsts                                  41718957776                       # Number of instructions simulated (Count)
simOps                                    45374625392                       # Number of ops (including micro ops) simulated (Count)
hostInstRate                                   200306                       # Simulator instruction rate (inst/s) ((Count/Second))
hostOpRate                                     217859                       # Simulator op (including micro ops) rate (op/s) ((Count/Second))
system.bridge.power_state.pwrStateResidencyTicks::UNDEFINED 21670830311500                       # Cumulative time (in ticks) in various power states (Tick)
system.clk_domain.clock                          1000                       # Clock period in ticks (Tick)
system.cpu.numCycles                       3830044413                       # Number of cpu cycles simulated (Cycle)
system.cpu.numWorkItemsStarted                      0                       # Number of work items this cpu started (Count)
system.cpu.numWorkItemsCompleted                    0                       # Number of work items this cpu completed (Count)
system.cpu.committedInsts                  6025536260                       # Number of instructions committed (Count)
system.cpu.numVMExits                          175361                       # total number of KVM exits (Count)
system.cpu.numVMHalfEntries                         0                       # number of KVM entries to finalize pending operations (Count)
system.cpu.numExitSignal                         4291                       # exits due to signal delivery (Count)
system.cpu.numMMIO                             171070                       # number of VM exits due to memory mapped IO (Count)
system.cpu.numCoalescedMMIO                         0                       # number of coalesced memory mapped IO requests (Count)
system.cpu.numIO                                    0                       # number of VM exits due to legacy IO (Count)
system.cpu.numHalt                                  0                       # number of VM exits due to wait for interrupt instructions (Count)
system.cpu.numInterrupts                            0                       # number of interrupts delivered (Count)
system.cpu.numHypercalls                            0                       # number of hypercalls (Count)
system.cpu.dcache.demandHits::switch_cpus.data   9257866495                       # number of demand (read+write) hits (Count)
system.cpu.dcache.demandHits::total        9257866495                       # number of demand (read+write) hits (Count)
system.cpu.dcache.overallHits::switch_cpus.data   9273846611                       # number of overall hits (Count)
system.cpu.dcache.overallHits::total       9273846611                       # number of overall hits (Count)
system.cpu.dcache.demandMisses::switch_cpus.data   2977744302                       # number of demand (read+write) misses (Count)
system.cpu.dcache.demandMisses::total      2977744302                       # number of demand (read+write) misses (Count)
system.cpu.dcache.overallMisses::switch_cpus.data   2981678541                       # number of overall misses (Count)
system.cpu.dcache.overallMisses::total     2981678541                       # number of overall misses (Count)
system.cpu.dcache.demandMissLatency::switch_cpus.data 212132676511158                       # number of demand (read+write) miss ticks (Tick)
system.cpu.dcache.demandMissLatency::total 212132676511158                       # number of demand (read+write) miss ticks (Tick)
system.cpu.dcache.overallMissLatency::switch_cpus.data 212132676511158                       # number of overall miss ticks (Tick)
system.cpu.dcache.overallMissLatency::total 212132676511158                       # number of overall miss ticks (Tick)
system.cpu.dcache.demandAccesses::switch_cpus.data  12235610797                       # number of demand (read+write) accesses (Count)
system.cpu.dcache.demandAccesses::total   12235610797                       # number of demand (read+write) accesses (Count)
system.cpu.dcache.overallAccesses::switch_cpus.data  12255525152                       # number of overall (read+write) accesses (Count)
system.cpu.dcache.overallAccesses::total  12255525152                       # number of overall (read+write) accesses (Count)
system.cpu.dcache.demandMissRate::switch_cpus.data     0.243367                       # miss rate for demand accesses (Ratio)
system.cpu.dcache.demandMissRate::total      0.243367                       # miss rate for demand accesses (Ratio)
system.cpu.dcache.overallMissRate::switch_cpus.data     0.243293                       # miss rate for overall accesses (Ratio)
system.cpu.dcache.overallMissRate::total     0.243293                       # miss rate for overall accesses (Ratio)
system.cpu.dcache.demandAvgMissLatency::switch_cpus.data 71239.386259                       # average overall miss latency in ticks ((Tick/Count))
system.cpu.dcache.demandAvgMissLatency::total 71239.386259                       # average overall miss latency in ticks ((Tick/Count))
system.cpu.dcache.overallAvgMissLatency::switch_cpus.data 71145.387940                       # average overall miss latency ((Tick/Count))
system.cpu.dcache.overallAvgMissLatency::total 71145.387940                       # average overall miss latency ((Tick/Count))
system.cpu.dcache.blockedCycles::no_mshrs  12705084715                       # number of cycles access was blocked (Cycle)
system.cpu.dcache.blockedCycles::no_targets       206571                       # number of cycles access was blocked (Cycle)
system.cpu.dcache.blockedCauses::no_mshrs    222197799                       # number of times access was blocked (Count)
system.cpu.dcache.blockedCauses::no_targets         1267                       # number of times access was blocked (Count)
system.cpu.dcache.avgBlocked::no_mshrs      57.179165                       # average number of cycles each access was blocked ((Cycle/Count))
system.cpu.dcache.avgBlocked::no_targets   163.039463                       # average number of cycles each access was blocked ((Cycle/Count))
system.cpu.dcache.writebacks::writebacks    379771259                       # number of writebacks (Count)
system.cpu.dcache.writebacks::total         379771259                       # number of writebacks (Count)
system.cpu.dcache.demandMshrHits::switch_cpus.data   2593125439                       # number of demand (read+write) MSHR hits (Count)
system.cpu.dcache.demandMshrHits::total    2593125439                       # number of demand (read+write) MSHR hits (Count)
system.cpu.dcache.overallMshrHits::switch_cpus.data   2593125439                       # number of overall MSHR hits (Count)
system.cpu.dcache.overallMshrHits::total   2593125439                       # number of overall MSHR hits (Count)
system.cpu.dcache.demandMshrMisses::switch_cpus.data    384618863                       # number of demand (read+write) MSHR misses (Count)
system.cpu.dcache.demandMshrMisses::total    384618863                       # number of demand (read+write) MSHR misses (Count)
system.cpu.dcache.overallMshrMisses::switch_cpus.data    388257191                       # number of overall MSHR misses (Count)
system.cpu.dcache.overallMshrMisses::total    388257191                       # number of overall MSHR misses (Count)
system.cpu.dcache.overallMshrUncacheable::switch_cpus.data       453643                       # number of overall MSHR uncacheable misses (Count)
system.cpu.dcache.overallMshrUncacheable::total       453643                       # number of overall MSHR uncacheable misses (Count)
system.cpu.dcache.demandMshrMissLatency::switch_cpus.data 32419115067442                       # number of demand (read+write) MSHR miss ticks (Tick)
system.cpu.dcache.demandMshrMissLatency::total 32419115067442                       # number of demand (read+write) MSHR miss ticks (Tick)
system.cpu.dcache.overallMshrMissLatency::switch_cpus.data 32791425773442                       # number of overall MSHR miss ticks (Tick)
system.cpu.dcache.overallMshrMissLatency::total 32791425773442                       # number of overall MSHR miss ticks (Tick)
system.cpu.dcache.overallMshrUncacheableLatency::switch_cpus.data  26255424000                       # number of overall MSHR uncacheable ticks (Tick)
system.cpu.dcache.overallMshrUncacheableLatency::total  26255424000                       # number of overall MSHR uncacheable ticks (Tick)
system.cpu.dcache.demandMshrMissRate::switch_cpus.data     0.031434                       # mshr miss ratio for demand accesses (Ratio)
system.cpu.dcache.demandMshrMissRate::total     0.031434                       # mshr miss ratio for demand accesses (Ratio)
system.cpu.dcache.overallMshrMissRate::switch_cpus.data     0.031680                       # mshr miss ratio for overall accesses (Ratio)
system.cpu.dcache.overallMshrMissRate::total     0.031680                       # mshr miss ratio for overall accesses (Ratio)
system.cpu.dcache.demandAvgMshrMissLatency::switch_cpus.data 84288.936883                       # average overall mshr miss latency ((Tick/Count))
system.cpu.dcache.demandAvgMshrMissLatency::total 84288.936883                       # average overall mshr miss latency ((Tick/Count))
system.cpu.dcache.overallAvgMshrMissLatency::switch_cpus.data 84457.999835                       # average overall mshr miss latency ((Tick/Count))
system.cpu.dcache.overallAvgMshrMissLatency::total 84457.999835                       # average overall mshr miss latency ((Tick/Count))
system.cpu.dcache.overallAvgMshrUncacheableLatency::switch_cpus.data 57876.841481                       # average overall mshr uncacheable latency ((Tick/Count))
system.cpu.dcache.overallAvgMshrUncacheableLatency::total 57876.841481                       # average overall mshr uncacheable latency ((Tick/Count))
system.cpu.dcache.replacements              387770322                       # number of replacements (Count)
system.cpu.dcache.CleanSharedReq.mshrMisses::switch_cpus.data         3072                       # number of CleanSharedReq MSHR misses (Count)
system.cpu.dcache.CleanSharedReq.mshrMisses::total         3072                       # number of CleanSharedReq MSHR misses (Count)
system.cpu.dcache.CleanSharedReq.mshrMissLatency::switch_cpus.data      4740872                       # number of CleanSharedReq MSHR miss ticks (Tick)
system.cpu.dcache.CleanSharedReq.mshrMissLatency::total      4740872                       # number of CleanSharedReq MSHR miss ticks (Tick)
system.cpu.dcache.CleanSharedReq.mshrMissRate::switch_cpus.data          inf                       # mshr miss rate for CleanSharedReq accesses (Ratio)
system.cpu.dcache.CleanSharedReq.mshrMissRate::total          inf                       # mshr miss rate for CleanSharedReq accesses (Ratio)
system.cpu.dcache.CleanSharedReq.avgMshrMissLatency::switch_cpus.data  1543.252604                       # average CleanSharedReq mshr miss latency ((Tick/Count))
system.cpu.dcache.CleanSharedReq.avgMshrMissLatency::total  1543.252604                       # average CleanSharedReq mshr miss latency ((Tick/Count))
system.cpu.dcache.LoadLockedReq.hits::switch_cpus.data          159                       # number of LoadLockedReq hits (Count)
system.cpu.dcache.LoadLockedReq.hits::total          159                       # number of LoadLockedReq hits (Count)
system.cpu.dcache.LoadLockedReq.misses::switch_cpus.data            3                       # number of LoadLockedReq misses (Count)
system.cpu.dcache.LoadLockedReq.misses::total            3                       # number of LoadLockedReq misses (Count)
system.cpu.dcache.LoadLockedReq.missLatency::switch_cpus.data       165000                       # number of LoadLockedReq miss ticks (Tick)
system.cpu.dcache.LoadLockedReq.missLatency::total       165000                       # number of LoadLockedReq miss ticks (Tick)
system.cpu.dcache.LoadLockedReq.accesses::switch_cpus.data          162                       # number of LoadLockedReq accesses(hits+misses) (Count)
system.cpu.dcache.LoadLockedReq.accesses::total          162                       # number of LoadLockedReq accesses(hits+misses) (Count)
system.cpu.dcache.LoadLockedReq.missRate::switch_cpus.data     0.018519                       # miss rate for LoadLockedReq accesses (Ratio)
system.cpu.dcache.LoadLockedReq.missRate::total     0.018519                       # miss rate for LoadLockedReq accesses (Ratio)
system.cpu.dcache.LoadLockedReq.avgMissLatency::switch_cpus.data        55000                       # average LoadLockedReq miss latency ((Tick/Count))
system.cpu.dcache.LoadLockedReq.avgMissLatency::total        55000                       # average LoadLockedReq miss latency ((Tick/Count))
system.cpu.dcache.LoadLockedReq.mshrMisses::switch_cpus.data            3                       # number of LoadLockedReq MSHR misses (Count)
system.cpu.dcache.LoadLockedReq.mshrMisses::total            3                       # number of LoadLockedReq MSHR misses (Count)
system.cpu.dcache.LoadLockedReq.mshrMissLatency::switch_cpus.data       162000                       # number of LoadLockedReq MSHR miss ticks (Tick)
system.cpu.dcache.LoadLockedReq.mshrMissLatency::total       162000                       # number of LoadLockedReq MSHR miss ticks (Tick)
system.cpu.dcache.LoadLockedReq.mshrMissRate::switch_cpus.data     0.018519                       # mshr miss rate for LoadLockedReq accesses (Ratio)
system.cpu.dcache.LoadLockedReq.mshrMissRate::total     0.018519                       # mshr miss rate for LoadLockedReq accesses (Ratio)
system.cpu.dcache.LoadLockedReq.avgMshrMissLatency::switch_cpus.data        54000                       # average LoadLockedReq mshr miss latency ((Tick/Count))
system.cpu.dcache.LoadLockedReq.avgMshrMissLatency::total        54000                       # average LoadLockedReq mshr miss latency ((Tick/Count))
system.cpu.dcache.ReadReq.hits::switch_cpus.data   8670112486                       # number of ReadReq hits (Count)
system.cpu.dcache.ReadReq.hits::total      8670112486                       # number of ReadReq hits (Count)
system.cpu.dcache.ReadReq.misses::switch_cpus.data     19016873                       # number of ReadReq misses (Count)
system.cpu.dcache.ReadReq.misses::total      19016873                       # number of ReadReq misses (Count)
system.cpu.dcache.ReadReq.missLatency::switch_cpus.data 1349047187000                       # number of ReadReq miss ticks (Tick)
system.cpu.dcache.ReadReq.missLatency::total 1349047187000                       # number of ReadReq miss ticks (Tick)
system.cpu.dcache.ReadReq.accesses::switch_cpus.data   8689129359                       # number of ReadReq accesses(hits+misses) (Count)
system.cpu.dcache.ReadReq.accesses::total   8689129359                       # number of ReadReq accesses(hits+misses) (Count)
system.cpu.dcache.ReadReq.missRate::switch_cpus.data     0.002189                       # miss rate for ReadReq accesses (Ratio)
system.cpu.dcache.ReadReq.missRate::total     0.002189                       # miss rate for ReadReq accesses (Ratio)
system.cpu.dcache.ReadReq.avgMissLatency::switch_cpus.data 70939.485530                       # average ReadReq miss latency ((Tick/Count))
system.cpu.dcache.ReadReq.avgMissLatency::total 70939.485530                       # average ReadReq miss latency ((Tick/Count))
system.cpu.dcache.ReadReq.mshrHits::switch_cpus.data     11119024                       # number of ReadReq MSHR hits (Count)
system.cpu.dcache.ReadReq.mshrHits::total     11119024                       # number of ReadReq MSHR hits (Count)
system.cpu.dcache.ReadReq.mshrMisses::switch_cpus.data      7897849                       # number of ReadReq MSHR misses (Count)
system.cpu.dcache.ReadReq.mshrMisses::total      7897849                       # number of ReadReq MSHR misses (Count)
system.cpu.dcache.ReadReq.mshrUncacheable::switch_cpus.data       433858                       # number of ReadReq MSHR uncacheable (Count)
system.cpu.dcache.ReadReq.mshrUncacheable::total       433858                       # number of ReadReq MSHR uncacheable (Count)
system.cpu.dcache.ReadReq.mshrMissLatency::switch_cpus.data 541259034501                       # number of ReadReq MSHR miss ticks (Tick)
system.cpu.dcache.ReadReq.mshrMissLatency::total 541259034501                       # number of ReadReq MSHR miss ticks (Tick)
system.cpu.dcache.ReadReq.mshrUncacheableLatency::switch_cpus.data  26255424000                       # number of ReadReq MSHR uncacheable ticks (Tick)
system.cpu.dcache.ReadReq.mshrUncacheableLatency::total  26255424000                       # number of ReadReq MSHR uncacheable ticks (Tick)
system.cpu.dcache.ReadReq.mshrMissRate::switch_cpus.data     0.000909                       # mshr miss rate for ReadReq accesses (Ratio)
system.cpu.dcache.ReadReq.mshrMissRate::total     0.000909                       # mshr miss rate for ReadReq accesses (Ratio)
system.cpu.dcache.ReadReq.avgMshrMissLatency::switch_cpus.data 68532.461750                       # average ReadReq mshr miss latency ((Tick/Count))
system.cpu.dcache.ReadReq.avgMshrMissLatency::total 68532.461750                       # average ReadReq mshr miss latency ((Tick/Count))
system.cpu.dcache.ReadReq.avgMshrUncacheableLatency::switch_cpus.data 60516.168885                       # average ReadReq mshr uncacheable latency ((Tick/Count))
system.cpu.dcache.ReadReq.avgMshrUncacheableLatency::total 60516.168885                       # average ReadReq mshr uncacheable latency ((Tick/Count))
system.cpu.dcache.SoftPFExReq.hits::switch_cpus.data           17                       # number of SoftPFExReq hits (Count)
system.cpu.dcache.SoftPFExReq.hits::total           17                       # number of SoftPFExReq hits (Count)
system.cpu.dcache.SoftPFExReq.accesses::switch_cpus.data           17                       # number of SoftPFExReq accesses(hits+misses) (Count)
system.cpu.dcache.SoftPFExReq.accesses::total           17                       # number of SoftPFExReq accesses(hits+misses) (Count)
system.cpu.dcache.SoftPFReq.hits::switch_cpus.data     15980099                       # number of SoftPFReq hits (Count)
system.cpu.dcache.SoftPFReq.hits::total      15980099                       # number of SoftPFReq hits (Count)
system.cpu.dcache.SoftPFReq.misses::switch_cpus.data      3934239                       # number of SoftPFReq misses (Count)
system.cpu.dcache.SoftPFReq.misses::total      3934239                       # number of SoftPFReq misses (Count)
system.cpu.dcache.SoftPFReq.accesses::switch_cpus.data     19914338                       # number of SoftPFReq accesses(hits+misses) (Count)
system.cpu.dcache.SoftPFReq.accesses::total     19914338                       # number of SoftPFReq accesses(hits+misses) (Count)
system.cpu.dcache.SoftPFReq.missRate::switch_cpus.data     0.197558                       # miss rate for SoftPFReq accesses (Ratio)
system.cpu.dcache.SoftPFReq.missRate::total     0.197558                       # miss rate for SoftPFReq accesses (Ratio)
system.cpu.dcache.SoftPFReq.mshrMisses::switch_cpus.data      3638328                       # number of SoftPFReq MSHR misses (Count)
system.cpu.dcache.SoftPFReq.mshrMisses::total      3638328                       # number of SoftPFReq MSHR misses (Count)
system.cpu.dcache.SoftPFReq.mshrMissLatency::switch_cpus.data 372310706000                       # number of SoftPFReq MSHR miss ticks (Tick)
system.cpu.dcache.SoftPFReq.mshrMissLatency::total 372310706000                       # number of SoftPFReq MSHR miss ticks (Tick)
system.cpu.dcache.SoftPFReq.mshrMissRate::switch_cpus.data     0.182699                       # mshr miss rate for SoftPFReq accesses (Ratio)
system.cpu.dcache.SoftPFReq.mshrMissRate::total     0.182699                       # mshr miss rate for SoftPFReq accesses (Ratio)
system.cpu.dcache.SoftPFReq.avgMshrMissLatency::switch_cpus.data 102330.165395                       # average SoftPFReq mshr miss latency ((Tick/Count))
system.cpu.dcache.SoftPFReq.avgMshrMissLatency::total 102330.165395                       # average SoftPFReq mshr miss latency ((Tick/Count))
system.cpu.dcache.StoreCondReq.hits::switch_cpus.data          132                       # number of StoreCondReq hits (Count)
system.cpu.dcache.StoreCondReq.hits::total          132                       # number of StoreCondReq hits (Count)
system.cpu.dcache.StoreCondReq.accesses::switch_cpus.data          132                       # number of StoreCondReq accesses(hits+misses) (Count)
system.cpu.dcache.StoreCondReq.accesses::total          132                       # number of StoreCondReq accesses(hits+misses) (Count)
system.cpu.dcache.SwapReq.hits::switch_cpus.data      1437393                       # number of SwapReq hits (Count)
system.cpu.dcache.SwapReq.hits::total         1437393                       # number of SwapReq hits (Count)
system.cpu.dcache.SwapReq.misses::switch_cpus.data       176495                       # number of SwapReq misses (Count)
system.cpu.dcache.SwapReq.misses::total        176495                       # number of SwapReq misses (Count)
system.cpu.dcache.SwapReq.missLatency::switch_cpus.data   6464472369                       # number of SwapReq miss ticks (Tick)
system.cpu.dcache.SwapReq.missLatency::total   6464472369                       # number of SwapReq miss ticks (Tick)
system.cpu.dcache.SwapReq.accesses::switch_cpus.data      1613888                       # number of SwapReq accesses(hits+misses) (Count)
system.cpu.dcache.SwapReq.accesses::total      1613888                       # number of SwapReq accesses(hits+misses) (Count)
system.cpu.dcache.SwapReq.missRate::switch_cpus.data     0.109360                       # miss rate for SwapReq accesses (Ratio)
system.cpu.dcache.SwapReq.missRate::total     0.109360                       # miss rate for SwapReq accesses (Ratio)
system.cpu.dcache.SwapReq.avgMissLatency::switch_cpus.data 36626.943364                       # average SwapReq miss latency ((Tick/Count))
system.cpu.dcache.SwapReq.avgMissLatency::total 36626.943364                       # average SwapReq miss latency ((Tick/Count))
system.cpu.dcache.SwapReq.mshrHits::switch_cpus.data           12                       # number of SwapReq MSHR hits (Count)
system.cpu.dcache.SwapReq.mshrHits::total           12                       # number of SwapReq MSHR hits (Count)
system.cpu.dcache.SwapReq.mshrMisses::switch_cpus.data       176483                       # number of SwapReq MSHR misses (Count)
system.cpu.dcache.SwapReq.mshrMisses::total       176483                       # number of SwapReq MSHR misses (Count)
system.cpu.dcache.SwapReq.mshrMissLatency::switch_cpus.data   6286830369                       # number of SwapReq MSHR miss ticks (Tick)
system.cpu.dcache.SwapReq.mshrMissLatency::total   6286830369                       # number of SwapReq MSHR miss ticks (Tick)
system.cpu.dcache.SwapReq.mshrMissRate::switch_cpus.data     0.109353                       # mshr miss rate for SwapReq accesses (Ratio)
system.cpu.dcache.SwapReq.mshrMissRate::total     0.109353                       # mshr miss rate for SwapReq accesses (Ratio)
system.cpu.dcache.SwapReq.avgMshrMissLatency::switch_cpus.data 35622.866616                       # average SwapReq mshr miss latency ((Tick/Count))
system.cpu.dcache.SwapReq.avgMshrMissLatency::total 35622.866616                       # average SwapReq mshr miss latency ((Tick/Count))
system.cpu.dcache.WriteLineReq.hits::switch_cpus.data          195                       # number of WriteLineReq hits (Count)
system.cpu.dcache.WriteLineReq.hits::total          195                       # number of WriteLineReq hits (Count)
system.cpu.dcache.WriteLineReq.misses::switch_cpus.data      2109430                       # number of WriteLineReq misses (Count)
system.cpu.dcache.WriteLineReq.misses::total      2109430                       # number of WriteLineReq misses (Count)
system.cpu.dcache.WriteLineReq.missLatency::switch_cpus.data 123515176895                       # number of WriteLineReq miss ticks (Tick)
system.cpu.dcache.WriteLineReq.missLatency::total 123515176895                       # number of WriteLineReq miss ticks (Tick)
system.cpu.dcache.WriteLineReq.accesses::switch_cpus.data      2109625                       # number of WriteLineReq accesses(hits+misses) (Count)
system.cpu.dcache.WriteLineReq.accesses::total      2109625                       # number of WriteLineReq accesses(hits+misses) (Count)
system.cpu.dcache.WriteLineReq.missRate::switch_cpus.data     0.999908                       # miss rate for WriteLineReq accesses (Ratio)
system.cpu.dcache.WriteLineReq.missRate::total     0.999908                       # miss rate for WriteLineReq accesses (Ratio)
system.cpu.dcache.WriteLineReq.avgMissLatency::switch_cpus.data 58553.816384                       # average WriteLineReq miss latency ((Tick/Count))
system.cpu.dcache.WriteLineReq.avgMissLatency::total 58553.816384                       # average WriteLineReq miss latency ((Tick/Count))
system.cpu.dcache.WriteLineReq.mshrHits::switch_cpus.data            5                       # number of WriteLineReq MSHR hits (Count)
system.cpu.dcache.WriteLineReq.mshrHits::total            5                       # number of WriteLineReq MSHR hits (Count)
system.cpu.dcache.WriteLineReq.mshrMisses::switch_cpus.data      2109425                       # number of WriteLineReq MSHR misses (Count)
system.cpu.dcache.WriteLineReq.mshrMisses::total      2109425                       # number of WriteLineReq MSHR misses (Count)
system.cpu.dcache.WriteLineReq.mshrMissLatency::switch_cpus.data 121405460895                       # number of WriteLineReq MSHR miss ticks (Tick)
system.cpu.dcache.WriteLineReq.mshrMissLatency::total 121405460895                       # number of WriteLineReq MSHR miss ticks (Tick)
system.cpu.dcache.WriteLineReq.mshrMissRate::switch_cpus.data     0.999905                       # mshr miss rate for WriteLineReq accesses (Ratio)
system.cpu.dcache.WriteLineReq.mshrMissRate::total     0.999905                       # mshr miss rate for WriteLineReq accesses (Ratio)
system.cpu.dcache.WriteLineReq.avgMshrMissLatency::switch_cpus.data 57553.817223                       # average WriteLineReq mshr miss latency ((Tick/Count))
system.cpu.dcache.WriteLineReq.avgMshrMissLatency::total 57553.817223                       # average WriteLineReq mshr miss latency ((Tick/Count))
system.cpu.dcache.WriteReq.hits::switch_cpus.data    587753814                       # number of WriteReq hits (Count)
system.cpu.dcache.WriteReq.hits::total      587753814                       # number of WriteReq hits (Count)
system.cpu.dcache.WriteReq.misses::switch_cpus.data   2956617999                       # number of WriteReq misses (Count)
system.cpu.dcache.WriteReq.misses::total   2956617999                       # number of WriteReq misses (Count)
system.cpu.dcache.WriteReq.missLatency::switch_cpus.data 210660114147263                       # number of WriteReq miss ticks (Tick)
system.cpu.dcache.WriteReq.missLatency::total 210660114147263                       # number of WriteReq miss ticks (Tick)
system.cpu.dcache.WriteReq.accesses::switch_cpus.data   3544371813                       # number of WriteReq accesses(hits+misses) (Count)
system.cpu.dcache.WriteReq.accesses::total   3544371813                       # number of WriteReq accesses(hits+misses) (Count)
system.cpu.dcache.WriteReq.missRate::switch_cpus.data     0.834173                       # miss rate for WriteReq accesses (Ratio)
system.cpu.dcache.WriteReq.missRate::total     0.834173                       # miss rate for WriteReq accesses (Ratio)
system.cpu.dcache.WriteReq.avgMissLatency::switch_cpus.data 71250.365863                       # average WriteReq miss latency ((Tick/Count))
system.cpu.dcache.WriteReq.avgMissLatency::total 71250.365863                       # average WriteReq miss latency ((Tick/Count))
system.cpu.dcache.WriteReq.mshrHits::switch_cpus.data   2582006410                       # number of WriteReq MSHR hits (Count)
system.cpu.dcache.WriteReq.mshrHits::total   2582006410                       # number of WriteReq MSHR hits (Count)
system.cpu.dcache.WriteReq.mshrMisses::switch_cpus.data    374611589                       # number of WriteReq MSHR misses (Count)
system.cpu.dcache.WriteReq.mshrMisses::total    374611589                       # number of WriteReq MSHR misses (Count)
system.cpu.dcache.WriteReq.mshrUncacheable::switch_cpus.data        19785                       # number of WriteReq MSHR uncacheable (Count)
system.cpu.dcache.WriteReq.mshrUncacheable::total        19785                       # number of WriteReq MSHR uncacheable (Count)
system.cpu.dcache.WriteReq.mshrMissLatency::switch_cpus.data 31756450572046                       # number of WriteReq MSHR miss ticks (Tick)
system.cpu.dcache.WriteReq.mshrMissLatency::total 31756450572046                       # number of WriteReq MSHR miss ticks (Tick)
system.cpu.dcache.WriteReq.mshrMissRate::switch_cpus.data     0.105692                       # mshr miss rate for WriteReq accesses (Ratio)
system.cpu.dcache.WriteReq.mshrMissRate::total     0.105692                       # mshr miss rate for WriteReq accesses (Ratio)
system.cpu.dcache.WriteReq.avgMshrMissLatency::switch_cpus.data 84771.671525                       # average WriteReq mshr miss latency ((Tick/Count))
system.cpu.dcache.WriteReq.avgMshrMissLatency::total 84771.671525                       # average WriteReq mshr miss latency ((Tick/Count))
system.cpu.dcache.power_state.pwrStateResidencyTicks::UNDEFINED 21670830311500                       # Cumulative time (in ticks) in various power states (Tick)
system.cpu.dcache.tags.tagsInUse           863.468769                       # Average ticks per tags in use ((Tick/Count))
system.cpu.dcache.tags.totalRefs           9663972798                       # Total number of references to valid blocks. (Count)
system.cpu.dcache.tags.sampledRefs          387771346                       # Sample count of references to valid blocks. (Count)
system.cpu.dcache.tags.avgRefs              24.921833                       # Average number of references to valid blocks. ((Count/Count))
system.cpu.dcache.tags.warmupTick        3393006671500                       # The tick when the warmup percentage was hit. (Tick)
system.cpu.dcache.tags.occupancies::switch_cpus.data   863.468769                       # Average occupied blocks per tick, per requestor ((Count/Tick))
system.cpu.dcache.tags.avgOccs::switch_cpus.data     0.843231                       # Average percentage of cache occupancy ((Ratio/Tick))
system.cpu.dcache.tags.avgOccs::total        0.843231                       # Average percentage of cache occupancy ((Ratio/Tick))
system.cpu.dcache.tags.tagAccesses        49416340970                       # Number of tag accesses (Count)
system.cpu.dcache.tags.dataAccesses       49416340970                       # Number of data accesses (Count)
system.cpu.dcache.tags.power_state.pwrStateResidencyTicks::UNDEFINED 21670830311500                       # Cumulative time (in ticks) in various power states (Tick)
system.cpu.icache.demandHits::switch_cpus.inst   2199029825                       # number of demand (read+write) hits (Count)
system.cpu.icache.demandHits::total        2199029825                       # number of demand (read+write) hits (Count)
system.cpu.icache.overallHits::switch_cpus.inst   2199029825                       # number of overall hits (Count)
system.cpu.icache.overallHits::total       2199029825                       # number of overall hits (Count)
system.cpu.icache.demandMisses::switch_cpus.inst      7518179                       # number of demand (read+write) misses (Count)
system.cpu.icache.demandMisses::total         7518179                       # number of demand (read+write) misses (Count)
system.cpu.icache.overallMisses::switch_cpus.inst      7518179                       # number of overall misses (Count)
system.cpu.icache.overallMisses::total        7518179                       # number of overall misses (Count)
system.cpu.icache.demandMissLatency::switch_cpus.inst 547795229076                       # number of demand (read+write) miss ticks (Tick)
system.cpu.icache.demandMissLatency::total 547795229076                       # number of demand (read+write) miss ticks (Tick)
system.cpu.icache.overallMissLatency::switch_cpus.inst 547795229076                       # number of overall miss ticks (Tick)
system.cpu.icache.overallMissLatency::total 547795229076                       # number of overall miss ticks (Tick)
system.cpu.icache.demandAccesses::switch_cpus.inst   2206548004                       # number of demand (read+write) accesses (Count)
system.cpu.icache.demandAccesses::total    2206548004                       # number of demand (read+write) accesses (Count)
system.cpu.icache.overallAccesses::switch_cpus.inst   2206548004                       # number of overall (read+write) accesses (Count)
system.cpu.icache.overallAccesses::total   2206548004                       # number of overall (read+write) accesses (Count)
system.cpu.icache.demandMissRate::switch_cpus.inst     0.003407                       # miss rate for demand accesses (Ratio)
system.cpu.icache.demandMissRate::total      0.003407                       # miss rate for demand accesses (Ratio)
system.cpu.icache.overallMissRate::switch_cpus.inst     0.003407                       # miss rate for overall accesses (Ratio)
system.cpu.icache.overallMissRate::total     0.003407                       # miss rate for overall accesses (Ratio)
system.cpu.icache.demandAvgMissLatency::switch_cpus.inst 72862.754275                       # average overall miss latency in ticks ((Tick/Count))
system.cpu.icache.demandAvgMissLatency::total 72862.754275                       # average overall miss latency in ticks ((Tick/Count))
system.cpu.icache.overallAvgMissLatency::switch_cpus.inst 72862.754275                       # average overall miss latency ((Tick/Count))
system.cpu.icache.overallAvgMissLatency::total 72862.754275                       # average overall miss latency ((Tick/Count))
system.cpu.icache.blockedCycles::no_mshrs      1099499                       # number of cycles access was blocked (Cycle)
system.cpu.icache.blockedCycles::no_targets            0                       # number of cycles access was blocked (Cycle)
system.cpu.icache.blockedCauses::no_mshrs        16586                       # number of times access was blocked (Count)
system.cpu.icache.blockedCauses::no_targets            0                       # number of times access was blocked (Count)
system.cpu.icache.avgBlocked::no_mshrs      66.290787                       # average number of cycles each access was blocked ((Cycle/Count))
system.cpu.icache.avgBlocked::no_targets          nan                       # average number of cycles each access was blocked ((Cycle/Count))
system.cpu.icache.writebacks::writebacks      6614327                       # number of writebacks (Count)
system.cpu.icache.writebacks::total           6614327                       # number of writebacks (Count)
system.cpu.icache.demandMshrHits::switch_cpus.inst       902828                       # number of demand (read+write) MSHR hits (Count)
system.cpu.icache.demandMshrHits::total        902828                       # number of demand (read+write) MSHR hits (Count)
system.cpu.icache.overallMshrHits::switch_cpus.inst       902828                       # number of overall MSHR hits (Count)
system.cpu.icache.overallMshrHits::total       902828                       # number of overall MSHR hits (Count)
system.cpu.icache.demandMshrMisses::switch_cpus.inst      6615351                       # number of demand (read+write) MSHR misses (Count)
system.cpu.icache.demandMshrMisses::total      6615351                       # number of demand (read+write) MSHR misses (Count)
system.cpu.icache.overallMshrMisses::switch_cpus.inst      6615351                       # number of overall MSHR misses (Count)
system.cpu.icache.overallMshrMisses::total      6615351                       # number of overall MSHR misses (Count)
system.cpu.icache.demandMshrMissLatency::switch_cpus.inst 473224119673                       # number of demand (read+write) MSHR miss ticks (Tick)
system.cpu.icache.demandMshrMissLatency::total 473224119673                       # number of demand (read+write) MSHR miss ticks (Tick)
system.cpu.icache.overallMshrMissLatency::switch_cpus.inst 473224119673                       # number of overall MSHR miss ticks (Tick)
system.cpu.icache.overallMshrMissLatency::total 473224119673                       # number of overall MSHR miss ticks (Tick)
system.cpu.icache.demandMshrMissRate::switch_cpus.inst     0.002998                       # mshr miss ratio for demand accesses (Ratio)
system.cpu.icache.demandMshrMissRate::total     0.002998                       # mshr miss ratio for demand accesses (Ratio)
system.cpu.icache.overallMshrMissRate::switch_cpus.inst     0.002998                       # mshr miss ratio for overall accesses (Ratio)
system.cpu.icache.overallMshrMissRate::total     0.002998                       # mshr miss ratio for overall accesses (Ratio)
system.cpu.icache.demandAvgMshrMissLatency::switch_cpus.inst 71534.242049                       # average overall mshr miss latency ((Tick/Count))
system.cpu.icache.demandAvgMshrMissLatency::total 71534.242049                       # average overall mshr miss latency ((Tick/Count))
system.cpu.icache.overallAvgMshrMissLatency::switch_cpus.inst 71534.242049                       # average overall mshr miss latency ((Tick/Count))
system.cpu.icache.overallAvgMshrMissLatency::total 71534.242049                       # average overall mshr miss latency ((Tick/Count))
system.cpu.icache.replacements                6614327                       # number of replacements (Count)
system.cpu.icache.ReadReq.hits::switch_cpus.inst   2199029825                       # number of ReadReq hits (Count)
system.cpu.icache.ReadReq.hits::total      2199029825                       # number of ReadReq hits (Count)
system.cpu.icache.ReadReq.misses::switch_cpus.inst      7518179                       # number of ReadReq misses (Count)
system.cpu.icache.ReadReq.misses::total       7518179                       # number of ReadReq misses (Count)
system.cpu.icache.ReadReq.missLatency::switch_cpus.inst 547795229076                       # number of ReadReq miss ticks (Tick)
system.cpu.icache.ReadReq.missLatency::total 547795229076                       # number of ReadReq miss ticks (Tick)
system.cpu.icache.ReadReq.accesses::switch_cpus.inst   2206548004                       # number of ReadReq accesses(hits+misses) (Count)
system.cpu.icache.ReadReq.accesses::total   2206548004                       # number of ReadReq accesses(hits+misses) (Count)
system.cpu.icache.ReadReq.missRate::switch_cpus.inst     0.003407                       # miss rate for ReadReq accesses (Ratio)
system.cpu.icache.ReadReq.missRate::total     0.003407                       # miss rate for ReadReq accesses (Ratio)
system.cpu.icache.ReadReq.avgMissLatency::switch_cpus.inst 72862.754275                       # average ReadReq miss latency ((Tick/Count))
system.cpu.icache.ReadReq.avgMissLatency::total 72862.754275                       # average ReadReq miss latency ((Tick/Count))
system.cpu.icache.ReadReq.mshrHits::switch_cpus.inst       902828                       # number of ReadReq MSHR hits (Count)
system.cpu.icache.ReadReq.mshrHits::total       902828                       # number of ReadReq MSHR hits (Count)
system.cpu.icache.ReadReq.mshrMisses::switch_cpus.inst      6615351                       # number of ReadReq MSHR misses (Count)
system.cpu.icache.ReadReq.mshrMisses::total      6615351                       # number of ReadReq MSHR misses (Count)
system.cpu.icache.ReadReq.mshrMissLatency::switch_cpus.inst 473224119673                       # number of ReadReq MSHR miss ticks (Tick)
system.cpu.icache.ReadReq.mshrMissLatency::total 473224119673                       # number of ReadReq MSHR miss ticks (Tick)
system.cpu.icache.ReadReq.mshrMissRate::switch_cpus.inst     0.002998                       # mshr miss rate for ReadReq accesses (Ratio)
system.cpu.icache.ReadReq.mshrMissRate::total     0.002998                       # mshr miss rate for ReadReq accesses (Ratio)
system.cpu.icache.ReadReq.avgMshrMissLatency::switch_cpus.inst 71534.242049                       # average ReadReq mshr miss latency ((Tick/Count))
system.cpu.icache.ReadReq.avgMshrMissLatency::total 71534.242049                       # average ReadReq mshr miss latency ((Tick/Count))
system.cpu.icache.power_state.pwrStateResidencyTicks::UNDEFINED 21670830311500                       # Cumulative time (in ticks) in various power states (Tick)
system.cpu.icache.tags.tagsInUse           863.412412                       # Average ticks per tags in use ((Tick/Count))
system.cpu.icache.tags.totalRefs           2205645176                       # Total number of references to valid blocks. (Count)
system.cpu.icache.tags.sampledRefs            6615351                       # Sample count of references to valid blocks. (Count)
system.cpu.icache.tags.avgRefs             333.413174                       # Average number of references to valid blocks. ((Count/Count))
system.cpu.icache.tags.warmupTick        3393005971500                       # The tick when the warmup percentage was hit. (Tick)
system.cpu.icache.tags.occupancies::switch_cpus.inst   863.412412                       # Average occupied blocks per tick, per requestor ((Count/Tick))
system.cpu.icache.tags.avgOccs::switch_cpus.inst     0.843176                       # Average percentage of cache occupancy ((Ratio/Tick))
system.cpu.icache.tags.avgOccs::total        0.843176                       # Average percentage of cache occupancy ((Ratio/Tick))
system.cpu.icache.tags.tagAccesses         8832807367                       # Number of tag accesses (Count)
system.cpu.icache.tags.dataAccesses        8832807367                       # Number of data accesses (Count)
system.cpu.icache.tags.power_state.pwrStateResidencyTicks::UNDEFINED 21670830311500                       # Cumulative time (in ticks) in various power states (Tick)
system.cpu.l2cache.demandHits::switch_cpus.mmu.dtb_walker       444459                       # number of demand (read+write) hits (Count)
system.cpu.l2cache.demandHits::switch_cpus.mmu.itb_walker        43195                       # number of demand (read+write) hits (Count)
system.cpu.l2cache.demandHits::switch_cpus.inst      2543720                       # number of demand (read+write) hits (Count)
system.cpu.l2cache.demandHits::switch_cpus.data      5147726                       # number of demand (read+write) hits (Count)
system.cpu.l2cache.demandHits::total          8179100                       # number of demand (read+write) hits (Count)
system.cpu.l2cache.overallHits::switch_cpus.mmu.dtb_walker       444459                       # number of overall hits (Count)
system.cpu.l2cache.overallHits::switch_cpus.mmu.itb_walker        43195                       # number of overall hits (Count)
system.cpu.l2cache.overallHits::switch_cpus.inst      2543720                       # number of overall hits (Count)
system.cpu.l2cache.overallHits::switch_cpus.data      5147726                       # number of overall hits (Count)
system.cpu.l2cache.overallHits::total         8179100                       # number of overall hits (Count)
system.cpu.l2cache.demandMisses::switch_cpus.mmu.dtb_walker        71023                       # number of demand (read+write) misses (Count)
system.cpu.l2cache.demandMisses::switch_cpus.mmu.itb_walker        10905                       # number of demand (read+write) misses (Count)
system.cpu.l2cache.demandMisses::switch_cpus.inst      4071631                       # number of demand (read+write) misses (Count)
system.cpu.l2cache.demandMisses::switch_cpus.data    379893457                       # number of demand (read+write) misses (Count)
system.cpu.l2cache.demandMisses::total      384047016                       # number of demand (read+write) misses (Count)
system.cpu.l2cache.overallMisses::switch_cpus.mmu.dtb_walker        71023                       # number of overall misses (Count)
system.cpu.l2cache.overallMisses::switch_cpus.mmu.itb_walker        10905                       # number of overall misses (Count)
system.cpu.l2cache.overallMisses::switch_cpus.inst      4071631                       # number of overall misses (Count)
system.cpu.l2cache.overallMisses::switch_cpus.data    379893457                       # number of overall misses (Count)
system.cpu.l2cache.overallMisses::total     384047016                       # number of overall misses (Count)
system.cpu.l2cache.demandMissLatency::switch_cpus.mmu.dtb_walker   7033369017                       # number of demand (read+write) miss ticks (Tick)
system.cpu.l2cache.demandMissLatency::switch_cpus.mmu.itb_walker   1162524305                       # number of demand (read+write) miss ticks (Tick)
system.cpu.l2cache.demandMissLatency::switch_cpus.inst 436046969000                       # number of demand (read+write) miss ticks (Tick)
system.cpu.l2cache.demandMissLatency::switch_cpus.data 31994876202996                       # number of demand (read+write) miss ticks (Tick)
system.cpu.l2cache.demandMissLatency::total 32439119065318                       # number of demand (read+write) miss ticks (Tick)
system.cpu.l2cache.overallMissLatency::switch_cpus.mmu.dtb_walker   7033369017                       # number of overall miss ticks (Tick)
system.cpu.l2cache.overallMissLatency::switch_cpus.mmu.itb_walker   1162524305                       # number of overall miss ticks (Tick)
system.cpu.l2cache.overallMissLatency::switch_cpus.inst 436046969000                       # number of overall miss ticks (Tick)
system.cpu.l2cache.overallMissLatency::switch_cpus.data 31994876202996                       # number of overall miss ticks (Tick)
system.cpu.l2cache.overallMissLatency::total 32439119065318                       # number of overall miss ticks (Tick)
system.cpu.l2cache.demandAccesses::switch_cpus.mmu.dtb_walker       515482                       # number of demand (read+write) accesses (Count)
system.cpu.l2cache.demandAccesses::switch_cpus.mmu.itb_walker        54100                       # number of demand (read+write) accesses (Count)
system.cpu.l2cache.demandAccesses::switch_cpus.inst      6615351                       # number of demand (read+write) accesses (Count)
system.cpu.l2cache.demandAccesses::switch_cpus.data    385041183                       # number of demand (read+write) accesses (Count)
system.cpu.l2cache.demandAccesses::total    392226116                       # number of demand (read+write) accesses (Count)
system.cpu.l2cache.overallAccesses::switch_cpus.mmu.dtb_walker       515482                       # number of overall (read+write) accesses (Count)
system.cpu.l2cache.overallAccesses::switch_cpus.mmu.itb_walker        54100                       # number of overall (read+write) accesses (Count)
system.cpu.l2cache.overallAccesses::switch_cpus.inst      6615351                       # number of overall (read+write) accesses (Count)
system.cpu.l2cache.overallAccesses::switch_cpus.data    385041183                       # number of overall (read+write) accesses (Count)
system.cpu.l2cache.overallAccesses::total    392226116                       # number of overall (read+write) accesses (Count)
system.cpu.l2cache.demandMissRate::switch_cpus.mmu.dtb_walker     0.137780                       # miss rate for demand accesses (Ratio)
system.cpu.l2cache.demandMissRate::switch_cpus.mmu.itb_walker     0.201571                       # miss rate for demand accesses (Ratio)
system.cpu.l2cache.demandMissRate::switch_cpus.inst     0.615482                       # miss rate for demand accesses (Ratio)
system.cpu.l2cache.demandMissRate::switch_cpus.data     0.986631                       # miss rate for demand accesses (Ratio)
system.cpu.l2cache.demandMissRate::total     0.979147                       # miss rate for demand accesses (Ratio)
system.cpu.l2cache.overallMissRate::switch_cpus.mmu.dtb_walker     0.137780                       # miss rate for overall accesses (Ratio)
system.cpu.l2cache.overallMissRate::switch_cpus.mmu.itb_walker     0.201571                       # miss rate for overall accesses (Ratio)
system.cpu.l2cache.overallMissRate::switch_cpus.inst     0.615482                       # miss rate for overall accesses (Ratio)
system.cpu.l2cache.overallMissRate::switch_cpus.data     0.986631                       # miss rate for overall accesses (Ratio)
system.cpu.l2cache.overallMissRate::total     0.979147                       # miss rate for overall accesses (Ratio)
system.cpu.l2cache.demandAvgMissLatency::switch_cpus.mmu.dtb_walker 99029.455486                       # average overall miss latency in ticks ((Tick/Count))
system.cpu.l2cache.demandAvgMissLatency::switch_cpus.mmu.itb_walker 106604.704723                       # average overall miss latency in ticks ((Tick/Count))
system.cpu.l2cache.demandAvgMissLatency::switch_cpus.inst 107093.930909                       # average overall miss latency in ticks ((Tick/Count))
system.cpu.l2cache.demandAvgMissLatency::switch_cpus.data 84220.656117                       # average overall miss latency in ticks ((Tick/Count))
system.cpu.l2cache.demandAvgMissLatency::total 84466.530695                       # average overall miss latency in ticks ((Tick/Count))
system.cpu.l2cache.overallAvgMissLatency::switch_cpus.mmu.dtb_walker 99029.455486                       # average overall miss latency ((Tick/Count))
system.cpu.l2cache.overallAvgMissLatency::switch_cpus.mmu.itb_walker 106604.704723                       # average overall miss latency ((Tick/Count))
system.cpu.l2cache.overallAvgMissLatency::switch_cpus.inst 107093.930909                       # average overall miss latency ((Tick/Count))
system.cpu.l2cache.overallAvgMissLatency::switch_cpus.data 84220.656117                       # average overall miss latency ((Tick/Count))
system.cpu.l2cache.overallAvgMissLatency::total 84466.530695                       # average overall miss latency ((Tick/Count))
system.cpu.l2cache.blockedCycles::no_mshrs            0                       # number of cycles access was blocked (Cycle)
system.cpu.l2cache.blockedCycles::no_targets            0                       # number of cycles access was blocked (Cycle)
system.cpu.l2cache.blockedCauses::no_mshrs            0                       # number of times access was blocked (Count)
system.cpu.l2cache.blockedCauses::no_targets            0                       # number of times access was blocked (Count)
system.cpu.l2cache.avgBlocked::no_mshrs           nan                       # average number of cycles each access was blocked ((Cycle/Count))
system.cpu.l2cache.avgBlocked::no_targets          nan                       # average number of cycles each access was blocked ((Cycle/Count))
system.cpu.l2cache.writebacks::writebacks    375717940                       # number of writebacks (Count)
system.cpu.l2cache.writebacks::total        375717940                       # number of writebacks (Count)
system.cpu.l2cache.demandMshrHits::switch_cpus.mmu.dtb_walker            4                       # number of demand (read+write) MSHR hits (Count)
system.cpu.l2cache.demandMshrHits::switch_cpus.mmu.itb_walker          114                       # number of demand (read+write) MSHR hits (Count)
system.cpu.l2cache.demandMshrHits::switch_cpus.data            1                       # number of demand (read+write) MSHR hits (Count)
system.cpu.l2cache.demandMshrHits::total          119                       # number of demand (read+write) MSHR hits (Count)
system.cpu.l2cache.overallMshrHits::switch_cpus.mmu.dtb_walker            4                       # number of overall MSHR hits (Count)
system.cpu.l2cache.overallMshrHits::switch_cpus.mmu.itb_walker          114                       # number of overall MSHR hits (Count)
system.cpu.l2cache.overallMshrHits::switch_cpus.data            1                       # number of overall MSHR hits (Count)
system.cpu.l2cache.overallMshrHits::total          119                       # number of overall MSHR hits (Count)
system.cpu.l2cache.demandMshrMisses::switch_cpus.mmu.dtb_walker        71019                       # number of demand (read+write) MSHR misses (Count)
system.cpu.l2cache.demandMshrMisses::switch_cpus.mmu.itb_walker        10791                       # number of demand (read+write) MSHR misses (Count)
system.cpu.l2cache.demandMshrMisses::switch_cpus.inst      4071631                       # number of demand (read+write) MSHR misses (Count)
system.cpu.l2cache.demandMshrMisses::switch_cpus.data    379893456                       # number of demand (read+write) MSHR misses (Count)
system.cpu.l2cache.demandMshrMisses::total    384046897                       # number of demand (read+write) MSHR misses (Count)
system.cpu.l2cache.overallMshrMisses::switch_cpus.mmu.dtb_walker        71019                       # number of overall MSHR misses (Count)
system.cpu.l2cache.overallMshrMisses::switch_cpus.mmu.itb_walker        10791                       # number of overall MSHR misses (Count)
system.cpu.l2cache.overallMshrMisses::switch_cpus.inst      4071631                       # number of overall MSHR misses (Count)
system.cpu.l2cache.overallMshrMisses::switch_cpus.data    379893456                       # number of overall MSHR misses (Count)
system.cpu.l2cache.overallMshrMisses::total    384046897                       # number of overall MSHR misses (Count)
system.cpu.l2cache.overallMshrUncacheable::switch_cpus.data       453643                       # number of overall MSHR uncacheable misses (Count)
system.cpu.l2cache.overallMshrUncacheable::total       453643                       # number of overall MSHR uncacheable misses (Count)
system.cpu.l2cache.demandMshrMissLatency::switch_cpus.mmu.dtb_walker   6322909519                       # number of demand (read+write) MSHR miss ticks (Tick)
system.cpu.l2cache.demandMshrMissLatency::switch_cpus.mmu.itb_walker   1049083869                       # number of demand (read+write) MSHR miss ticks (Tick)
system.cpu.l2cache.demandMshrMissLatency::switch_cpus.inst 395330659000                       # number of demand (read+write) MSHR miss ticks (Tick)
system.cpu.l2cache.demandMshrMissLatency::switch_cpus.data 28195941568496                       # number of demand (read+write) MSHR miss ticks (Tick)
system.cpu.l2cache.demandMshrMissLatency::total 28598644220884                       # number of demand (read+write) MSHR miss ticks (Tick)
system.cpu.l2cache.overallMshrMissLatency::switch_cpus.mmu.dtb_walker   6322909519                       # number of overall MSHR miss ticks (Tick)
system.cpu.l2cache.overallMshrMissLatency::switch_cpus.mmu.itb_walker   1049083869                       # number of overall MSHR miss ticks (Tick)
system.cpu.l2cache.overallMshrMissLatency::switch_cpus.inst 395330659000                       # number of overall MSHR miss ticks (Tick)
system.cpu.l2cache.overallMshrMissLatency::switch_cpus.data 28195941568496                       # number of overall MSHR miss ticks (Tick)
system.cpu.l2cache.overallMshrMissLatency::total 28598644220884                       # number of overall MSHR miss ticks (Tick)
system.cpu.l2cache.overallMshrUncacheableLatency::switch_cpus.data  21046856000                       # number of overall MSHR uncacheable ticks (Tick)
system.cpu.l2cache.overallMshrUncacheableLatency::total  21046856000                       # number of overall MSHR uncacheable ticks (Tick)
system.cpu.l2cache.demandMshrMissRate::switch_cpus.mmu.dtb_walker     0.137772                       # mshr miss ratio for demand accesses (Ratio)
system.cpu.l2cache.demandMshrMissRate::switch_cpus.mmu.itb_walker     0.199464                       # mshr miss ratio for demand accesses (Ratio)
system.cpu.l2cache.demandMshrMissRate::switch_cpus.inst     0.615482                       # mshr miss ratio for demand accesses (Ratio)
system.cpu.l2cache.demandMshrMissRate::switch_cpus.data     0.986631                       # mshr miss ratio for demand accesses (Ratio)
system.cpu.l2cache.demandMshrMissRate::total     0.979147                       # mshr miss ratio for demand accesses (Ratio)
system.cpu.l2cache.overallMshrMissRate::switch_cpus.mmu.dtb_walker     0.137772                       # mshr miss ratio for overall accesses (Ratio)
system.cpu.l2cache.overallMshrMissRate::switch_cpus.mmu.itb_walker     0.199464                       # mshr miss ratio for overall accesses (Ratio)
system.cpu.l2cache.overallMshrMissRate::switch_cpus.inst     0.615482                       # mshr miss ratio for overall accesses (Ratio)
system.cpu.l2cache.overallMshrMissRate::switch_cpus.data     0.986631                       # mshr miss ratio for overall accesses (Ratio)
system.cpu.l2cache.overallMshrMissRate::total     0.979147                       # mshr miss ratio for overall accesses (Ratio)
system.cpu.l2cache.demandAvgMshrMissLatency::switch_cpus.mmu.dtb_walker 89031.238387                       # average overall mshr miss latency ((Tick/Count))
system.cpu.l2cache.demandAvgMshrMissLatency::switch_cpus.mmu.itb_walker 97218.410620                       # average overall mshr miss latency ((Tick/Count))
system.cpu.l2cache.demandAvgMshrMissLatency::switch_cpus.inst 97093.930909                       # average overall mshr miss latency ((Tick/Count))
system.cpu.l2cache.demandAvgMshrMissLatency::switch_cpus.data 74220.656142                       # average overall mshr miss latency ((Tick/Count))
system.cpu.l2cache.demandAvgMshrMissLatency::total 74466.541572                       # average overall mshr miss latency ((Tick/Count))
system.cpu.l2cache.overallAvgMshrMissLatency::switch_cpus.mmu.dtb_walker 89031.238387                       # average overall mshr miss latency ((Tick/Count))
system.cpu.l2cache.overallAvgMshrMissLatency::switch_cpus.mmu.itb_walker 97218.410620                       # average overall mshr miss latency ((Tick/Count))
system.cpu.l2cache.overallAvgMshrMissLatency::switch_cpus.inst 97093.930909                       # average overall mshr miss latency ((Tick/Count))
system.cpu.l2cache.overallAvgMshrMissLatency::switch_cpus.data 74220.656142                       # average overall mshr miss latency ((Tick/Count))
system.cpu.l2cache.overallAvgMshrMissLatency::total 74466.541572                       # average overall mshr miss latency ((Tick/Count))
system.cpu.l2cache.overallAvgMshrUncacheableLatency::switch_cpus.data 46395.196223                       # average overall mshr uncacheable latency ((Tick/Count))
system.cpu.l2cache.overallAvgMshrUncacheableLatency::total 46395.196223                       # average overall mshr uncacheable latency ((Tick/Count))
system.cpu.l2cache.replacements             391573339                       # number of replacements (Count)
system.cpu.l2cache.CleanEvict.mshrMisses::writebacks         9616                       # number of CleanEvict MSHR misses (Count)
system.cpu.l2cache.CleanEvict.mshrMisses::total         9616                       # number of CleanEvict MSHR misses (Count)
system.cpu.l2cache.CleanEvict.mshrMissRate::writebacks          inf                       # mshr miss rate for CleanEvict accesses (Ratio)
system.cpu.l2cache.CleanEvict.mshrMissRate::total          inf                       # mshr miss rate for CleanEvict accesses (Ratio)
system.cpu.l2cache.InvalidateReq.hits::switch_cpus.data        21252                       # number of InvalidateReq hits (Count)
system.cpu.l2cache.InvalidateReq.hits::total        21252                       # number of InvalidateReq hits (Count)
system.cpu.l2cache.InvalidateReq.misses::switch_cpus.data      2709002                       # number of InvalidateReq misses (Count)
system.cpu.l2cache.InvalidateReq.misses::total      2709002                       # number of InvalidateReq misses (Count)
system.cpu.l2cache.InvalidateReq.accesses::switch_cpus.data      2730254                       # number of InvalidateReq accesses(hits+misses) (Count)
system.cpu.l2cache.InvalidateReq.accesses::total      2730254                       # number of InvalidateReq accesses(hits+misses) (Count)
system.cpu.l2cache.InvalidateReq.missRate::switch_cpus.data     0.992216                       # miss rate for InvalidateReq accesses (Ratio)
system.cpu.l2cache.InvalidateReq.missRate::total     0.992216                       # miss rate for InvalidateReq accesses (Ratio)
system.cpu.l2cache.InvalidateReq.mshrMisses::switch_cpus.data      2709002                       # number of InvalidateReq MSHR misses (Count)
system.cpu.l2cache.InvalidateReq.mshrMisses::total      2709002                       # number of InvalidateReq MSHR misses (Count)
system.cpu.l2cache.InvalidateReq.mshrMissLatency::switch_cpus.data 111137128496                       # number of InvalidateReq MSHR miss ticks (Tick)
system.cpu.l2cache.InvalidateReq.mshrMissLatency::total 111137128496                       # number of InvalidateReq MSHR miss ticks (Tick)
system.cpu.l2cache.InvalidateReq.mshrMissRate::switch_cpus.data     0.992216                       # mshr miss rate for InvalidateReq accesses (Ratio)
system.cpu.l2cache.InvalidateReq.mshrMissRate::total     0.992216                       # mshr miss rate for InvalidateReq accesses (Ratio)
system.cpu.l2cache.InvalidateReq.avgMshrMissLatency::switch_cpus.data 41025.118658                       # average InvalidateReq mshr miss latency ((Tick/Count))
system.cpu.l2cache.InvalidateReq.avgMshrMissLatency::total 41025.118658                       # average InvalidateReq mshr miss latency ((Tick/Count))
system.cpu.l2cache.ReadCleanReq.hits::switch_cpus.inst      2543720                       # number of ReadCleanReq hits (Count)
system.cpu.l2cache.ReadCleanReq.hits::total      2543720                       # number of ReadCleanReq hits (Count)
system.cpu.l2cache.ReadCleanReq.misses::switch_cpus.inst      4071631                       # number of ReadCleanReq misses (Count)
system.cpu.l2cache.ReadCleanReq.misses::total      4071631                       # number of ReadCleanReq misses (Count)
system.cpu.l2cache.ReadCleanReq.missLatency::switch_cpus.inst 436046969000                       # number of ReadCleanReq miss ticks (Tick)
system.cpu.l2cache.ReadCleanReq.missLatency::total 436046969000                       # number of ReadCleanReq miss ticks (Tick)
system.cpu.l2cache.ReadCleanReq.accesses::switch_cpus.inst      6615351                       # number of ReadCleanReq accesses(hits+misses) (Count)
system.cpu.l2cache.ReadCleanReq.accesses::total      6615351                       # number of ReadCleanReq accesses(hits+misses) (Count)
system.cpu.l2cache.ReadCleanReq.missRate::switch_cpus.inst     0.615482                       # miss rate for ReadCleanReq accesses (Ratio)
system.cpu.l2cache.ReadCleanReq.missRate::total     0.615482                       # miss rate for ReadCleanReq accesses (Ratio)
system.cpu.l2cache.ReadCleanReq.avgMissLatency::switch_cpus.inst 107093.930909                       # average ReadCleanReq miss latency ((Tick/Count))
system.cpu.l2cache.ReadCleanReq.avgMissLatency::total 107093.930909                       # average ReadCleanReq miss latency ((Tick/Count))
system.cpu.l2cache.ReadCleanReq.mshrMisses::switch_cpus.inst      4071631                       # number of ReadCleanReq MSHR misses (Count)
system.cpu.l2cache.ReadCleanReq.mshrMisses::total      4071631                       # number of ReadCleanReq MSHR misses (Count)
system.cpu.l2cache.ReadCleanReq.mshrMissLatency::switch_cpus.inst 395330659000                       # number of ReadCleanReq MSHR miss ticks (Tick)
system.cpu.l2cache.ReadCleanReq.mshrMissLatency::total 395330659000                       # number of ReadCleanReq MSHR miss ticks (Tick)
system.cpu.l2cache.ReadCleanReq.mshrMissRate::switch_cpus.inst     0.615482                       # mshr miss rate for ReadCleanReq accesses (Ratio)
system.cpu.l2cache.ReadCleanReq.mshrMissRate::total     0.615482                       # mshr miss rate for ReadCleanReq accesses (Ratio)
system.cpu.l2cache.ReadCleanReq.avgMshrMissLatency::switch_cpus.inst 97093.930909                       # average ReadCleanReq mshr miss latency ((Tick/Count))
system.cpu.l2cache.ReadCleanReq.avgMshrMissLatency::total 97093.930909                       # average ReadCleanReq mshr miss latency ((Tick/Count))
system.cpu.l2cache.ReadExReq.hits::switch_cpus.data      2498127                       # number of ReadExReq hits (Count)
system.cpu.l2cache.ReadExReq.hits::total      2498127                       # number of ReadExReq hits (Count)
system.cpu.l2cache.ReadExReq.misses::switch_cpus.data    371031221                       # number of ReadExReq misses (Count)
system.cpu.l2cache.ReadExReq.misses::total    371031221                       # number of ReadExReq misses (Count)
system.cpu.l2cache.ReadExReq.missLatency::switch_cpus.data 31131489149500                       # number of ReadExReq miss ticks (Tick)
system.cpu.l2cache.ReadExReq.missLatency::total 31131489149500                       # number of ReadExReq miss ticks (Tick)
system.cpu.l2cache.ReadExReq.accesses::switch_cpus.data    373529348                       # number of ReadExReq accesses(hits+misses) (Count)
system.cpu.l2cache.ReadExReq.accesses::total    373529348                       # number of ReadExReq accesses(hits+misses) (Count)
system.cpu.l2cache.ReadExReq.missRate::switch_cpus.data     0.993312                       # miss rate for ReadExReq accesses (Ratio)
system.cpu.l2cache.ReadExReq.missRate::total     0.993312                       # miss rate for ReadExReq accesses (Ratio)
system.cpu.l2cache.ReadExReq.avgMissLatency::switch_cpus.data 83905.308738                       # average ReadExReq miss latency ((Tick/Count))
system.cpu.l2cache.ReadExReq.avgMissLatency::total 83905.308738                       # average ReadExReq miss latency ((Tick/Count))
system.cpu.l2cache.ReadExReq.mshrMisses::switch_cpus.data    371031221                       # number of ReadExReq MSHR misses (Count)
system.cpu.l2cache.ReadExReq.mshrMisses::total    371031221                       # number of ReadExReq MSHR misses (Count)
system.cpu.l2cache.ReadExReq.mshrMissLatency::switch_cpus.data 27421176939500                       # number of ReadExReq MSHR miss ticks (Tick)
system.cpu.l2cache.ReadExReq.mshrMissLatency::total 27421176939500                       # number of ReadExReq MSHR miss ticks (Tick)
system.cpu.l2cache.ReadExReq.mshrMissRate::switch_cpus.data     0.993312                       # mshr miss rate for ReadExReq accesses (Ratio)
system.cpu.l2cache.ReadExReq.mshrMissRate::total     0.993312                       # mshr miss rate for ReadExReq accesses (Ratio)
system.cpu.l2cache.ReadExReq.avgMshrMissLatency::switch_cpus.data 73905.308738                       # average ReadExReq mshr miss latency ((Tick/Count))
system.cpu.l2cache.ReadExReq.avgMshrMissLatency::total 73905.308738                       # average ReadExReq mshr miss latency ((Tick/Count))
system.cpu.l2cache.ReadReq.hits::switch_cpus.mmu.dtb_walker       444459                       # number of ReadReq hits (Count)
system.cpu.l2cache.ReadReq.hits::switch_cpus.mmu.itb_walker        43195                       # number of ReadReq hits (Count)
system.cpu.l2cache.ReadReq.hits::total         487654                       # number of ReadReq hits (Count)
system.cpu.l2cache.ReadReq.misses::switch_cpus.mmu.dtb_walker        71023                       # number of ReadReq misses (Count)
system.cpu.l2cache.ReadReq.misses::switch_cpus.mmu.itb_walker        10905                       # number of ReadReq misses (Count)
system.cpu.l2cache.ReadReq.misses::total        81928                       # number of ReadReq misses (Count)
system.cpu.l2cache.ReadReq.missLatency::switch_cpus.mmu.dtb_walker   7033369017                       # number of ReadReq miss ticks (Tick)
system.cpu.l2cache.ReadReq.missLatency::switch_cpus.mmu.itb_walker   1162524305                       # number of ReadReq miss ticks (Tick)
system.cpu.l2cache.ReadReq.missLatency::total   8195893322                       # number of ReadReq miss ticks (Tick)
system.cpu.l2cache.ReadReq.accesses::switch_cpus.mmu.dtb_walker       515482                       # number of ReadReq accesses(hits+misses) (Count)
system.cpu.l2cache.ReadReq.accesses::switch_cpus.mmu.itb_walker        54100                       # number of ReadReq accesses(hits+misses) (Count)
system.cpu.l2cache.ReadReq.accesses::total       569582                       # number of ReadReq accesses(hits+misses) (Count)
system.cpu.l2cache.ReadReq.missRate::switch_cpus.mmu.dtb_walker     0.137780                       # miss rate for ReadReq accesses (Ratio)
system.cpu.l2cache.ReadReq.missRate::switch_cpus.mmu.itb_walker     0.201571                       # miss rate for ReadReq accesses (Ratio)
system.cpu.l2cache.ReadReq.missRate::total     0.143839                       # miss rate for ReadReq accesses (Ratio)
system.cpu.l2cache.ReadReq.avgMissLatency::switch_cpus.mmu.dtb_walker 99029.455486                       # average ReadReq miss latency ((Tick/Count))
system.cpu.l2cache.ReadReq.avgMissLatency::switch_cpus.mmu.itb_walker 106604.704723                       # average ReadReq miss latency ((Tick/Count))
system.cpu.l2cache.ReadReq.avgMissLatency::total 100037.756591                       # average ReadReq miss latency ((Tick/Count))
system.cpu.l2cache.ReadReq.mshrHits::switch_cpus.mmu.dtb_walker            4                       # number of ReadReq MSHR hits (Count)
system.cpu.l2cache.ReadReq.mshrHits::switch_cpus.mmu.itb_walker          114                       # number of ReadReq MSHR hits (Count)
system.cpu.l2cache.ReadReq.mshrHits::total          118                       # number of ReadReq MSHR hits (Count)
system.cpu.l2cache.ReadReq.mshrMisses::switch_cpus.mmu.dtb_walker        71019                       # number of ReadReq MSHR misses (Count)
system.cpu.l2cache.ReadReq.mshrMisses::switch_cpus.mmu.itb_walker        10791                       # number of ReadReq MSHR misses (Count)
system.cpu.l2cache.ReadReq.mshrMisses::total        81810                       # number of ReadReq MSHR misses (Count)
system.cpu.l2cache.ReadReq.mshrUncacheable::switch_cpus.data       433858                       # number of ReadReq MSHR uncacheable (Count)
system.cpu.l2cache.ReadReq.mshrUncacheable::total       433858                       # number of ReadReq MSHR uncacheable (Count)
system.cpu.l2cache.ReadReq.mshrMissLatency::switch_cpus.mmu.dtb_walker   6322909519                       # number of ReadReq MSHR miss ticks (Tick)
system.cpu.l2cache.ReadReq.mshrMissLatency::switch_cpus.mmu.itb_walker   1049083869                       # number of ReadReq MSHR miss ticks (Tick)
system.cpu.l2cache.ReadReq.mshrMissLatency::total   7371993388                       # number of ReadReq MSHR miss ticks (Tick)
system.cpu.l2cache.ReadReq.mshrUncacheableLatency::switch_cpus.data  21046856000                       # number of ReadReq MSHR uncacheable ticks (Tick)
system.cpu.l2cache.ReadReq.mshrUncacheableLatency::total  21046856000                       # number of ReadReq MSHR uncacheable ticks (Tick)
system.cpu.l2cache.ReadReq.mshrMissRate::switch_cpus.mmu.dtb_walker     0.137772                       # mshr miss rate for ReadReq accesses (Ratio)
system.cpu.l2cache.ReadReq.mshrMissRate::switch_cpus.mmu.itb_walker     0.199464                       # mshr miss rate for ReadReq accesses (Ratio)
system.cpu.l2cache.ReadReq.mshrMissRate::total     0.143632                       # mshr miss rate for ReadReq accesses (Ratio)
system.cpu.l2cache.ReadReq.avgMshrMissLatency::switch_cpus.mmu.dtb_walker 89031.238387                       # average ReadReq mshr miss latency ((Tick/Count))
system.cpu.l2cache.ReadReq.avgMshrMissLatency::switch_cpus.mmu.itb_walker 97218.410620                       # average ReadReq mshr miss latency ((Tick/Count))
system.cpu.l2cache.ReadReq.avgMshrMissLatency::total 90111.152524                       # average ReadReq mshr miss latency ((Tick/Count))
system.cpu.l2cache.ReadReq.avgMshrUncacheableLatency::switch_cpus.data 48510.932148                       # average ReadReq mshr uncacheable latency ((Tick/Count))
system.cpu.l2cache.ReadReq.avgMshrUncacheableLatency::total 48510.932148                       # average ReadReq mshr uncacheable latency ((Tick/Count))
system.cpu.l2cache.ReadSharedReq.hits::switch_cpus.data      2649599                       # number of ReadSharedReq hits (Count)
system.cpu.l2cache.ReadSharedReq.hits::total      2649599                       # number of ReadSharedReq hits (Count)
system.cpu.l2cache.ReadSharedReq.misses::switch_cpus.data      8862236                       # number of ReadSharedReq misses (Count)
system.cpu.l2cache.ReadSharedReq.misses::total      8862236                       # number of ReadSharedReq misses (Count)
system.cpu.l2cache.ReadSharedReq.missLatency::switch_cpus.data 863387053496                       # number of ReadSharedReq miss ticks (Tick)
system.cpu.l2cache.ReadSharedReq.missLatency::total 863387053496                       # number of ReadSharedReq miss ticks (Tick)
system.cpu.l2cache.ReadSharedReq.accesses::switch_cpus.data     11511835                       # number of ReadSharedReq accesses(hits+misses) (Count)
system.cpu.l2cache.ReadSharedReq.accesses::total     11511835                       # number of ReadSharedReq accesses(hits+misses) (Count)
system.cpu.l2cache.ReadSharedReq.missRate::switch_cpus.data     0.769837                       # miss rate for ReadSharedReq accesses (Ratio)
system.cpu.l2cache.ReadSharedReq.missRate::total     0.769837                       # miss rate for ReadSharedReq accesses (Ratio)
system.cpu.l2cache.ReadSharedReq.avgMissLatency::switch_cpus.data 97423.161998                       # average ReadSharedReq miss latency ((Tick/Count))
system.cpu.l2cache.ReadSharedReq.avgMissLatency::total 97423.161998                       # average ReadSharedReq miss latency ((Tick/Count))
system.cpu.l2cache.ReadSharedReq.mshrHits::switch_cpus.data            1                       # number of ReadSharedReq MSHR hits (Count)
system.cpu.l2cache.ReadSharedReq.mshrHits::total            1                       # number of ReadSharedReq MSHR hits (Count)
system.cpu.l2cache.ReadSharedReq.mshrMisses::switch_cpus.data      8862235                       # number of ReadSharedReq MSHR misses (Count)
system.cpu.l2cache.ReadSharedReq.mshrMisses::total      8862235                       # number of ReadSharedReq MSHR misses (Count)
system.cpu.l2cache.ReadSharedReq.mshrMissLatency::switch_cpus.data 774764628996                       # number of ReadSharedReq MSHR miss ticks (Tick)
system.cpu.l2cache.ReadSharedReq.mshrMissLatency::total 774764628996                       # number of ReadSharedReq MSHR miss ticks (Tick)
system.cpu.l2cache.ReadSharedReq.mshrMissRate::switch_cpus.data     0.769837                       # mshr miss rate for ReadSharedReq accesses (Ratio)
system.cpu.l2cache.ReadSharedReq.mshrMissRate::total     0.769837                       # mshr miss rate for ReadSharedReq accesses (Ratio)
system.cpu.l2cache.ReadSharedReq.avgMshrMissLatency::switch_cpus.data 87423.164585                       # average ReadSharedReq mshr miss latency ((Tick/Count))
system.cpu.l2cache.ReadSharedReq.avgMshrMissLatency::total 87423.164585                       # average ReadSharedReq mshr miss latency ((Tick/Count))
system.cpu.l2cache.UpgradeReq.hits::switch_cpus.data       692956                       # number of UpgradeReq hits (Count)
system.cpu.l2cache.UpgradeReq.hits::total       692956                       # number of UpgradeReq hits (Count)
system.cpu.l2cache.UpgradeReq.misses::switch_cpus.data           75                       # number of UpgradeReq misses (Count)
system.cpu.l2cache.UpgradeReq.misses::total           75                       # number of UpgradeReq misses (Count)
system.cpu.l2cache.UpgradeReq.missLatency::switch_cpus.data       447500                       # number of UpgradeReq miss ticks (Tick)
system.cpu.l2cache.UpgradeReq.missLatency::total       447500                       # number of UpgradeReq miss ticks (Tick)
system.cpu.l2cache.UpgradeReq.accesses::switch_cpus.data       693031                       # number of UpgradeReq accesses(hits+misses) (Count)
system.cpu.l2cache.UpgradeReq.accesses::total       693031                       # number of UpgradeReq accesses(hits+misses) (Count)
system.cpu.l2cache.UpgradeReq.missRate::switch_cpus.data     0.000108                       # miss rate for UpgradeReq accesses (Ratio)
system.cpu.l2cache.UpgradeReq.missRate::total     0.000108                       # miss rate for UpgradeReq accesses (Ratio)
system.cpu.l2cache.UpgradeReq.avgMissLatency::switch_cpus.data  5966.666667                       # average UpgradeReq miss latency ((Tick/Count))
system.cpu.l2cache.UpgradeReq.avgMissLatency::total  5966.666667                       # average UpgradeReq miss latency ((Tick/Count))
system.cpu.l2cache.UpgradeReq.mshrMisses::switch_cpus.data           75                       # number of UpgradeReq MSHR misses (Count)
system.cpu.l2cache.UpgradeReq.mshrMisses::total           75                       # number of UpgradeReq MSHR misses (Count)
system.cpu.l2cache.UpgradeReq.mshrMissLatency::switch_cpus.data      2453500                       # number of UpgradeReq MSHR miss ticks (Tick)
system.cpu.l2cache.UpgradeReq.mshrMissLatency::total      2453500                       # number of UpgradeReq MSHR miss ticks (Tick)
system.cpu.l2cache.UpgradeReq.mshrMissRate::switch_cpus.data     0.000108                       # mshr miss rate for UpgradeReq accesses (Ratio)
system.cpu.l2cache.UpgradeReq.mshrMissRate::total     0.000108                       # mshr miss rate for UpgradeReq accesses (Ratio)
system.cpu.l2cache.UpgradeReq.avgMshrMissLatency::switch_cpus.data 32713.333333                       # average UpgradeReq mshr miss latency ((Tick/Count))
system.cpu.l2cache.UpgradeReq.avgMshrMissLatency::total 32713.333333                       # average UpgradeReq mshr miss latency ((Tick/Count))
system.cpu.l2cache.WriteReq.mshrUncacheable::switch_cpus.data        19785                       # number of WriteReq MSHR uncacheable (Count)
[...]
system.switch_cpus.mmu.itb_walker.pageSizes::4KiB         5240     97.62%     97.62% # Table walker page sizes translated (Count)
system.switch_cpus.mmu.itb_walker.pageSizes::2MiB          128      2.38%    100.00% # Table walker page sizes translated (Count)
system.switch_cpus.mmu.itb_walker.pageSizes::total         5368                       # Table walker page sizes translated (Count)
system.switch_cpus.mmu.itb_walker.requestOrigin_Requested::Data            0                       # Table walker requests started/completed, data/inst (Count)
system.switch_cpus.mmu.itb_walker.requestOrigin_Requested::Inst        58626                       # Table walker requests started/completed, data/inst (Count)
system.switch_cpus.mmu.itb_walker.requestOrigin_Requested::total        58626                       # Table walker requests started/completed, data/inst (Count)
system.switch_cpus.mmu.itb_walker.requestOrigin_Completed::Data            0                       # Table walker requests started/completed, data/inst (Count)
system.switch_cpus.mmu.itb_walker.requestOrigin_Completed::Inst         5368                       # Table walker requests started/completed, data/inst (Count)
system.switch_cpus.mmu.itb_walker.requestOrigin_Completed::total         5368                       # Table walker requests started/completed, data/inst (Count)
system.switch_cpus.mmu.itb_walker.requestOrigin::total        63994                       # Table walker requests started/completed, data/inst (Count)
system.switch_cpus.mmu.itb_walker.power_state.pwrStateResidencyTicks::UNDEFINED 21670830311500                       # Cumulative time (in ticks) in various power states (Tick)
system.switch_cpus.mmu.l2_shared.partialHits      1234899                       # partial translation hits (Count)
system.switch_cpus.mmu.l2_shared.instHits       919455                       # Inst hits (Count)
system.switch_cpus.mmu.l2_shared.instMisses        49099                       # Inst misses (Count)
system.switch_cpus.mmu.l2_shared.readHits      1430532                       # Read hits (Count)
system.switch_cpus.mmu.l2_shared.readMisses       694430                       # Read misses (Count)
system.switch_cpus.mmu.l2_shared.writeHits      4695487                       # Write hits (Count)
system.switch_cpus.mmu.l2_shared.writeMisses        85102                       # Write misses (Count)
system.switch_cpus.mmu.l2_shared.inserts        97935                       # Number of times an entry is inserted into the TLB (Count)
system.switch_cpus.mmu.l2_shared.flushTlb            2                       # Number of times complete TLB was flushed (Count)
system.switch_cpus.mmu.l2_shared.flushTlbMva            0                       # Number of times TLB was flushed by MVA (Count)
system.switch_cpus.mmu.l2_shared.flushTlbMvaAsid         2937                       # Number of times TLB was flushed by MVA & ASID (Count)
system.switch_cpus.mmu.l2_shared.flushTlbAsid           12                       # Number of times TLB was flushed by ASID (Count)
system.switch_cpus.mmu.l2_shared.flushedEntries        10776                       # Number of entries that have been flushed from TLB (Count)
system.switch_cpus.mmu.l2_shared.readAccesses      2124962                       # Read accesses (Count)
system.switch_cpus.mmu.l2_shared.writeAccesses      4780589                       # Write accesses (Count)
system.switch_cpus.mmu.l2_shared.instAccesses       968554                       # Inst accesses (Count)
system.switch_cpus.mmu.l2_shared.hits         7045474                       # Total TLB (inst and data) hits (Count)
system.switch_cpus.mmu.l2_shared.misses        828631                       # Total TLB (inst and data) misses (Count)
system.switch_cpus.mmu.l2_shared.accesses      7874105                       # Total TLB (inst and data) accesses (Count)
system.switch_cpus.mmu.stage2_dtb.readHits            0                       # Read hits (Count)
system.switch_cpus.mmu.stage2_dtb.readMisses            0                       # Read misses (Count)
system.switch_cpus.mmu.stage2_dtb.writeHits            0                       # Write hits (Count)
system.switch_cpus.mmu.stage2_dtb.writeMisses            0                       # Write misses (Count)
system.switch_cpus.mmu.stage2_dtb.inserts            0                       # Number of times an entry is inserted into the TLB (Count)
system.switch_cpus.mmu.stage2_dtb.flushTlb            2                       # Number of times complete TLB was flushed (Count)
system.switch_cpus.mmu.stage2_dtb.flushTlbMva            0                       # Number of times TLB was flushed by MVA (Count)
system.switch_cpus.mmu.stage2_dtb.flushTlbMvaAsid            0                       # Number of times TLB was flushed by MVA & ASID (Count)
system.switch_cpus.mmu.stage2_dtb.flushTlbAsid            0                       # Number of times TLB was flushed by ASID (Count)
system.switch_cpus.mmu.stage2_dtb.flushedEntries            0                       # Number of entries that have been flushed from TLB (Count)
system.switch_cpus.mmu.stage2_dtb.readAccesses            0                       # Read accesses (Count)
system.switch_cpus.mmu.stage2_dtb.writeAccesses            0                       # Write accesses (Count)
system.switch_cpus.mmu.stage2_dtb.hits              0                       # Total TLB (inst and data) hits (Count)
system.switch_cpus.mmu.stage2_dtb.misses            0                       # Total TLB (inst and data) misses (Count)
system.switch_cpus.mmu.stage2_dtb.accesses            0                       # Total TLB (inst and data) accesses (Count)
system.switch_cpus.mmu.stage2_dtb_walker.walks            0                       # Table walker walks requested (Count)
system.switch_cpus.mmu.stage2_dtb_walker.requestOrigin_Requested::Data            0                       # Table walker requests started/completed, data/inst (Count)
system.switch_cpus.mmu.stage2_dtb_walker.requestOrigin_Requested::Inst            0                       # Table walker requests started/completed, data/inst (Count)
system.switch_cpus.mmu.stage2_dtb_walker.requestOrigin_Requested::total            0                       # Table walker requests started/completed, data/inst (Count)
system.switch_cpus.mmu.stage2_dtb_walker.requestOrigin_Completed::Data            0                       # Table walker requests started/completed, data/inst (Count)
system.switch_cpus.mmu.stage2_dtb_walker.requestOrigin_Completed::Inst            0                       # Table walker requests started/completed, data/inst (Count)
system.switch_cpus.mmu.stage2_dtb_walker.requestOrigin_Completed::total            0                       # Table walker requests started/completed, data/inst (Count)
system.switch_cpus.mmu.stage2_dtb_walker.requestOrigin::total            0                       # Table walker requests started/completed, data/inst (Count)
system.switch_cpus.mmu.stage2_dtb_walker.power_state.pwrStateResidencyTicks::UNDEFINED 21670830311500                       # Cumulative time (in ticks) in various power states (Tick)
system.switch_cpus.mmu.stage2_itb.instHits            0                       # Inst hits (Count)
system.switch_cpus.mmu.stage2_itb.instMisses            0                       # Inst misses (Count)
system.switch_cpus.mmu.stage2_itb.inserts            0                       # Number of times an entry is inserted into the TLB (Count)
system.switch_cpus.mmu.stage2_itb.flushTlb            2                       # Number of times complete TLB was flushed (Count)
system.switch_cpus.mmu.stage2_itb.flushTlbMva            0                       # Number of times TLB was flushed by MVA (Count)
system.switch_cpus.mmu.stage2_itb.flushTlbMvaAsid            0                       # Number of times TLB was flushed by MVA & ASID (Count)
system.switch_cpus.mmu.stage2_itb.flushTlbAsid            0                       # Number of times TLB was flushed by ASID (Count)
system.switch_cpus.mmu.stage2_itb.flushedEntries            0                       # Number of entries that have been flushed from TLB (Count)
system.switch_cpus.mmu.stage2_itb.instAccesses            0                       # Inst accesses (Count)
system.switch_cpus.mmu.stage2_itb.hits              0                       # Total TLB (inst and data) hits (Count)
system.switch_cpus.mmu.stage2_itb.misses            0                       # Total TLB (inst and data) misses (Count)
system.switch_cpus.mmu.stage2_itb.accesses            0                       # Total TLB (inst and data) accesses (Count)
system.switch_cpus.mmu.stage2_itb_walker.walks            0                       # Table walker walks requested (Count)
system.switch_cpus.mmu.stage2_itb_walker.requestOrigin_Requested::Data            0                       # Table walker requests started/completed, data/inst (Count)
system.switch_cpus.mmu.stage2_itb_walker.requestOrigin_Requested::Inst            0                       # Table walker requests started/completed, data/inst (Count)
system.switch_cpus.mmu.stage2_itb_walker.requestOrigin_Requested::total            0                       # Table walker requests started/completed, data/inst (Count)
system.switch_cpus.mmu.stage2_itb_walker.requestOrigin_Completed::Data            0                       # Table walker requests started/completed, data/inst (Count)
system.switch_cpus.mmu.stage2_itb_walker.requestOrigin_Completed::Inst            0                       # Table walker requests started/completed, data/inst (Count)
system.switch_cpus.mmu.stage2_itb_walker.requestOrigin_Completed::total            0                       # Table walker requests started/completed, data/inst (Count)
system.switch_cpus.mmu.stage2_itb_walker.requestOrigin::total            0                       # Table walker requests started/completed, data/inst (Count)
system.switch_cpus.mmu.stage2_itb_walker.power_state.pwrStateResidencyTicks::UNDEFINED 21670830311500                       # Cumulative time (in ticks) in various power states (Tick)
system.switch_cpus.power_state.numTransitions           67                       # Number of power state transitions (Count)
system.switch_cpus.power_state.ticksClkGated::samples           33                       # Distribution of time spent in the clock gated state (Tick)
system.switch_cpus.power_state.ticksClkGated::mean 24944618510.303032                       # Distribution of time spent in the clock gated state (Tick)
system.switch_cpus.power_state.ticksClkGated::stdev 18528552043.703560                       # Distribution of time spent in the clock gated state (Tick)
system.switch_cpus.power_state.ticksClkGated::1000-5e+10           33    100.00%    100.00% # Distribution of time spent in the clock gated state (Tick)
system.switch_cpus.power_state.ticksClkGated::min_value   3889221676                       # Distribution of time spent in the clock gated state (Tick)
system.switch_cpus.power_state.ticksClkGated::max_value  48013980820                       # Distribution of time spent in the clock gated state (Tick)
system.switch_cpus.power_state.ticksClkGated::total           33                       # Distribution of time spent in the clock gated state (Tick)
system.switch_cpus.power_state.pwrStateResidencyTicks::ON 17442540651910                       # Cumulative time (in ticks) in various power states (Tick)
system.switch_cpus.power_state.pwrStateResidencyTicks::CLK_GATED 823172410840                       # Cumulative time (in ticks) in various power states (Tick)
system.switch_cpus.power_state.pwrStateResidencyTicks::OFF 3405117248750                       # Cumulative time (in ticks) in various power states (Tick)
system.switch_cpus.rename.squashCycles       70946899                       # Number of cycles rename is squashing (Cycle)
system.switch_cpus.rename.idleCycles       2342472524                       # Number of cycles rename is idle (Cycle)
system.switch_cpus.rename.blockCycles      9870224528                       # Number of cycles rename is blocking (Cycle)
system.switch_cpus.rename.serializeStallCycles   3273840231                       # count of cycles rename stalled for serializing inst (Cycle)
system.switch_cpus.rename.runCycles        8332634559                       # Number of cycles rename is running (Cycle)
system.switch_cpus.rename.unblockCycles   10464967273                       # Number of cycles rename is unblocking (Cycle)
system.switch_cpus.rename.renamedInsts    40841163642                       # Number of instructions processed by rename (Count)
system.switch_cpus.rename.ROBFullEvents       2890192                       # Number of times rename has blocked due to ROB full (Count)
system.switch_cpus.rename.IQFullEvents     1792868988                       # Number of times rename has blocked due to IQ full (Count)
system.switch_cpus.rename.LQFullEvents       74275799                       # Number of times rename has blocked due to LQ full (Count)
system.switch_cpus.rename.SQFullEvents     7829514310                       # Number of times rename has blocked due to SQ full (Count)
system.switch_cpus.rename.renamedOperands  27947434932                       # Number of destination operands rename has renamed (Count)
system.switch_cpus.rename.lookups         75874895266                       # Number of register rename lookups that rename has made (Count)
system.switch_cpus.rename.intLookups      37551922227                       # Number of integer rename lookups (Count)
system.switch_cpus.rename.vecLookups       2978985516                       # Number of vector rename lookups (Count)
system.switch_cpus.rename.committedMaps   26483675156                       # Number of HB maps that are committed (Count)
system.switch_cpus.rename.undoneMaps       1463759776                       # Number of HB maps that are undone due to squashing (Count)
system.switch_cpus.rename.serializing       235933065                       # count of serializing insts renamed (Count)
system.switch_cpus.rename.tempSerializing      1428785                       # count of temporary serializing insts renamed (Count)
system.switch_cpus.rename.skidInsts       11310390752                       # count of insts added to the skid buffer (Count)
system.switch_cpus.rob.reads              74527296358                       # The number of ROB reads (Count)
system.switch_cpus.rob.writes             81681582407                       # The number of ROB writes (Count)
system.switch_cpus.thread_0.numInsts      35693421516                       # Number of Instructions committed (Count)
system.switch_cpus.thread_0.numOps        39349089132                       # Number of Ops committed (Count)
system.switch_cpus.thread_0.numMemRefs              0                       # Number of Memory References (Count)
system.tollcbus.transDist::ReadReq             579249                       # Transaction distribution (Count)
system.tollcbus.transDist::ReadResp          13594925                       # Transaction distribution (Count)
system.tollcbus.transDist::WriteReq             45460                       # Transaction distribution (Count)
system.tollcbus.transDist::WriteResp            45460                       # Transaction distribution (Count)
system.tollcbus.transDist::WritebackDirty    571885211                       # Transaction distribution (Count)
system.tollcbus.transDist::CleanEvict        20142248                       # Transaction distribution (Count)
system.tollcbus.transDist::UpgradeReq              75                       # Transaction distribution (Count)
system.tollcbus.transDist::UpgradeResp             75                       # Transaction distribution (Count)
system.tollcbus.transDist::ReadExReq        371031221                       # Transaction distribution (Count)
system.tollcbus.transDist::ReadExResp       371031221                       # Transaction distribution (Count)
system.tollcbus.transDist::ReadSharedReq     13015676                       # Transaction distribution (Count)
system.tollcbus.transDist::InvalidateReq      2709002                       # Transaction distribution (Count)
system.tollcbus.transDist::InvalidateResp      2709002                       # Transaction distribution (Count)
system.tollcbus.pktCount_system.cpu.l2cache.mem_side_port::system.llc.cpu_side_port   1161508266                       # Packet count per connected requestor and responder (Count)
system.tollcbus.pktSize_system.cpu.l2cache.mem_side_port::system.llc.cpu_side_port  48627369063                       # Cumulative packet size per connected requestor and responder (Byte)
system.tollcbus.snoops                      205280559                       # Total snoops (Count)
system.tollcbus.snoopTraffic              12554705344                       # Total snoop traffic (Byte)
system.tollcbus.snoopFanout::samples        592490188                       # Request fanout histogram (Count)
system.tollcbus.snoopFanout::mean            0.004469                       # Request fanout histogram (Count)
system.tollcbus.snoopFanout::stdev           0.066702                       # Request fanout histogram (Count)
system.tollcbus.snoopFanout::underflows             0      0.00%      0.00% # Request fanout histogram (Count)
system.tollcbus.snoopFanout::0              589842249     99.55%     99.55% # Request fanout histogram (Count)
system.tollcbus.snoopFanout::1                2647939      0.45%    100.00% # Request fanout histogram (Count)
system.tollcbus.snoopFanout::overflows              0      0.00%    100.00% # Request fanout histogram (Count)
system.tollcbus.snoopFanout::min_value              0                       # Request fanout histogram (Count)
system.tollcbus.snoopFanout::max_value              1                       # Request fanout histogram (Count)
system.tollcbus.snoopFanout::total          592490188                       # Request fanout histogram (Count)
system.tollcbus.power_state.pwrStateResidencyTicks::UNDEFINED 21670830311500                       # Cumulative time (in ticks) in various power states (Tick)
system.tollcbus.reqLayer0.occupancy      762708032827                       # Layer occupancy (ticks) (Tick)
system.tollcbus.reqLayer0.utilization             0.0                       # Layer utilization (Ratio)
system.tollcbus.respLayer0.occupancy     577868634500                       # Layer occupancy (ticks) (Tick)
system.tollcbus.respLayer0.utilization            0.0                       # Layer utilization (Ratio)
system.tollcbus.snoop_filter.totRequests    773504758                       # Total number of requests made to the snoop filter. (Count)
system.tollcbus.snoop_filter.hitSingleRequests    386749385                       # Number of requests hitting in the snoop filter with a single holder of the requested data. (Count)
system.tollcbus.snoop_filter.hitMultiRequests            0                       # Number of requests hitting in the snoop filter with multiple (>1) holders of the requested data. (Count)
system.tollcbus.snoop_filter.totSnoops        2647939                       # Total number of snoops made to the snoop filter. (Count)
system.tollcbus.snoop_filter.hitSingleSnoops      2647939                       # Number of snoops hitting in the snoop filter with a single holder of the requested data. (Count)
system.tollcbus.snoop_filter.hitMultiSnoops            0                       # Number of snoops hitting in the snoop filter with multiple (>1) holders of the requested data. (Count)
system.voltage_domain.voltage                       1                       # Voltage in Volts (Volt)
system.workload.inst.arm                            0                       # number of arm instructions executed (Count)
system.workload.inst.quiesce                       33                       # number of quiesce instructions executed (Count)

---------- End Simulation Statistics   ----------
