Global frequency set at 1000000000000 ticks per second
build/ARM/mem/dram_interface.cc:692: warn: DRAM device capacity (8192 Mbytes) does not match the address range assigned (16384 Mbytes)
build/ARM/sim/kernel_workload.cc:46: info: kernel located at: /home/llj/linux-5.10.137/vmlinux
system.vncserver: Listening for connections on port 5906
system.terminal: Listening for connections on port 3480
system.realview.uart1.device: Listening for connections on port 3481
system.realview.uart2.device: Listening for connections on port 3482
system.realview.uart3.device: Listening for connections on port 3483
0: system.remote_gdb: listening for remote gdb on port 7006
build/ARM/arch/arm/fs_workload.cc:121: info: Using bootloader at address 0x10
build/ARM/arch/arm/fs_workload.cc:139: info: Using kernel entry physical address at 0x80000000
build/ARM/arch/arm/linux/fs_workload.cc:112: info: Loading DTB file: m5out/system.dtb at address 0x88000000
build/ARM/cpu/kvm/base.cc:150: info: KVM: Coalesced MMIO disabled by config.
build/ARM/cpu/kvm/base.cc:150: info: KVM: Coalesced MMIO disabled by config.
build/ARM/cpu/kvm/base.cc:150: info: KVM: Coalesced MMIO disabled by config.
build/ARM/cpu/kvm/base.cc:150: info: KVM: Coalesced MMIO disabled by config.
build/ARM/dev/arm/energy_ctrl.cc:252: warn: Existing EnergyCtrl, but no enabled DVFSHandler found.
gem5 Simulator System.  https://www.gem5.org
gem5 is copyrighted software; use the --copyright option for details.

gem5 version 22.0.0.2
gem5 compiled Aug  3 2023 17:54:55
gem5 started Aug 21 2023 12:02:16
gem5 executing on localhost.localdomain, pid 3985366
command line: /home/llj/tailgem/build/ARM/gem5.opt /home/llj/tailgem/configs/example/fs.py -n 4 --caches --l2cache --l3cache --cpu-type=ArmV8KvmCPU --l1d_size=64kB --l1d_assoc=4 --l1i_size=64kB --l1i_assoc=4 --l2_size=512kB --l2_assoc=8 --l3_size=2MB --l2_assoc=16 --mem-type=DDR3_1600_8x8 --mem-size=16GB --bootloader=/home/llj/binaries/boot.arm64 --kernel=/home/llj/linux-5.10.137/vmlinux --disk=/home/kvm/images/ubuntu-image.img --init=/init.addr.gem5 --script=/home/llj/tailgem/script.txt --root-device=/dev/vda2 --machine-type VExpress_GEM5 --kvm2detail --kvm=3 --detail=-1

detail cpu:  ArmO3CPU
warn: No dot file generated. Please install pydot to generate the dot file and pdf.
build/ARM/sim/simulate.cc:194: info: Entering event queue @ 0.  Starting simulation...
build/ARM/arch/arm/isa_device.cc:73: warn: Returning zero for read from miscreg pmintenset_el1
build/ARM/arch/arm/isa_device.cc:build/ARM/arch/arm/isa_device.cc:73: warn: Returning zero for read from miscreg pmintenset_el1
73: build/ARM/arch/arm/isa_device.cc:73: warn: Returning zero for read from miscreg pmintenclr_el1
warn: Returning zero for read from miscreg pmintenclr_el1
build/ARM/arch/arm/isa_device.cc:build/ARM/arch/arm/isa_device.cc:73: warn: Returning zero for read from miscreg pmcr_el0
build/ARM/arch/arm/isa_device.cc:73: build/ARM/arch/arm/isa_device.cc:73: warn: Returning zero for read from miscreg pmcntenset_el0
warn: Returning zero for read from miscreg pmintenset_el1
73build/ARM/arch/arm/isa_device.cc:73: warn: Returning zero for read from miscreg pmintenclr_el1
: warn: Returning zero for read from miscreg pmcr_el0
build/ARM/arch/arm/isa_device.cc:73build/ARM/arch/arm/isa_device.cc:73: warn: Returning zero for read from miscreg pmcr_el0
: warn: Returning zero for read from miscreg pmcntenclr_el0
build/ARM/arch/arm/isa_device.cc:73: build/ARM/arch/arm/isa_device.cc:73: warn: Returning zero for read from miscreg pmovsclr_el0
warn: Returning zero for read from miscreg pmcntenset_el0
build/ARM/arch/arm/isa_device.cc:73: warn: Returning zero for read from miscreg pmintenset_el1
build/ARM/arch/arm/isa_device.ccbuild/ARM/arch/arm/isa_device.cc:73: warn: Returning zero for read from miscreg pmintenclr_el1
:73: warn: Returning zero for read from miscreg pmcntenset_el0
build/ARM/arch/arm/isa_device.cc:73: build/ARM/arch/arm/isa_device.cc:73: warn: Returning zero for read from miscreg pmcntenclr_el0
build/ARM/arch/arm/isa_device.cc:73: warn: Returning zero for read from miscreg pmovsclr_el0
warn: Returning zero for read from miscreg pmswinc_el0
build/ARM/arch/arm/isa_device.cc:73: build/ARM/arch/arm/isa_device.cc:73: warn: Returning zero for read from miscreg pmselr_el0
warn: Returning zero for read from miscreg pmcntenclr_el0
build/ARM/arch/arm/isa_device.cc:73: warn: Returning zero for read from miscreg pmswinc_el0
build/ARM/arch/arm/isa_device.cc:73: warn: Returning zero for read from miscreg pmccntr_el0
build/ARM/arch/arm/isa_device.ccbuild/ARM/arch/arm/isa_device.cc:73: warn: Returning zero for read from miscreg pmselr_el0
build/ARM/arch/arm/isa_device.cc:73: warn: Returning zero for read from miscreg pmccntr_el0
:73: warn: Returning zero for read from miscreg pmuserenr_el0
build/ARM/arch/arm/isa_device.cc:73: warn: Returning zero for read from miscreg pmuserenr_el0
build/ARM/arch/arm/isa_device.ccbuild/ARM/arch/arm/isa_device.cc:73: warn: Returning zero for read from miscreg pmovsset_el0
build/ARM/arch/arm/isa_device.cc:73: warn: Returning zero for read from miscreg pmovsclr_el0
:73: warn: Returning zero for read from miscreg pmovsset_el0
build/ARM/arch/arm/isa_device.cc:73: warn: Returning zero for read from miscreg pmevcntr0_el0
build/ARM/arch/arm/isa_device.cc:73: build/ARM/arch/arm/isa_device.cc:73: warn: Returning zero for read from miscreg pmevcntr1_el0
warn: Returning zero for read from miscreg pmswinc_el0
build/ARM/arch/arm/isa_device.cc:73: warn: Returning zero for read from miscreg pmcr_el0
build/ARM/arch/arm/isa_device.cc:73: warn: Returning zero for read from miscreg pmevcntr0_el0
build/ARM/arch/arm/isa_device.cc:73: build/ARM/arch/arm/isa_device.cc:73: build/ARM/arch/arm/isa_device.cc:73: warn: Returning zero for read from miscreg pmselr_el0
warn: Returning zero for read from miscreg pmevcntr1_el0
build/ARM/arch/arm/isa_device.cc:73: warn: Returning zero for read from miscreg pmcntenset_el0
warn: Returning zero for read from miscreg pmevcntr2_el0
build/ARM/arch/arm/isa_device.cc:73: build/ARM/arch/arm/isa_device.cc:73: warn: Returning zero for read from miscreg pmevcntr3_el0
warn: Returning zero for read from miscreg pmevcntr2_el0
build/ARM/arch/arm/isa_device.cc:73: warn: Returning zero for read from miscreg pmcntenclr_el0
build/ARM/arch/arm/isa_device.cc:73: warn: Returning zero for read from miscreg pmccntr_el0
build/ARM/arch/arm/isa_device.cc:73: warn: Returning zero for read from miscreg pmevcntr4_el0
build/ARM/arch/arm/isa_device.cc:73: warn: Returning zero for read from miscreg pmevcntr3_el0
build/ARM/arch/arm/isa_device.cc:73: warn: Returning zero for read from miscreg pmovsclr_el0
build/ARM/arch/arm/isa_device.cc:73: warn: Returning zero for read from miscreg pmuserenr_el0
build/ARM/arch/arm/isa_device.cc:73: warn: Returning zero for read from miscreg pmevcntr5_el0
build/ARM/arch/arm/isa_device.cc:73: warn: Returning zero for read from miscreg pmswinc_el0
build/ARM/arch/arm/isa_device.ccbuild/ARM/arch/arm/isa_device.cc:73: warn: Returning zero for read from miscreg pmevtyper0_el0
build/ARM/arch/arm/isa_device.cc:73: warn: Returning zero for read from miscreg pmevtyper1_el0
:73: warn: Returning zero for read from miscreg pmselr_el0
build/ARM/arch/arm/isa_device.cc:73: warn: Returning zero for read from miscreg pmevtyper2_el0
build/ARM/arch/arm/isa_device.ccbuild/ARM/arch/arm/isa_device.cc:73: warn: Returning zero for read from miscreg pmccntr_el0
build/ARM/arch/arm/isa_device.cc:73: warn: Returning zero for read from miscreg pmuserenr_el0
:73: warn: Returning zero for read from miscreg pmevtyper3_el0
build/ARM/arch/arm/isa_device.cc:73: warn: Returning zero for read from miscreg pmovsset_el0
build/ARM/arch/arm/isa_device.cc:73: warn: Returning zero for read from miscreg pmevcntr0_el0
build/ARM/arch/arm/isa_device.cc:73: warn: Returning zero for read from miscreg pmevcntr4_el0
build/ARM/arch/arm/isa_device.cc:73: warn: Returning zero for read from miscreg pmovsset_el0
build/ARM/arch/arm/isa_device.cc:73: warn: Returning zero for read from miscreg pmevtyper4_el0
build/ARM/arch/arm/isa_device.cc:73: build/ARM/arch/arm/isa_device.cc:73: warn: Returning zero for read from miscreg pmevtyper5_el0
warn: Returning zero for read from miscreg pmevcntr1_el0
build/ARM/arch/arm/isa_device.cc:73: warn: Returning zero for read from miscreg pmevcntr5_el0
build/ARM/arch/arm/isa_device.cc:73: warn: Returning zero for read from miscreg pmevcntr0_el0
build/ARM/arch/arm/isa_device.cc:73: build/ARM/arch/arm/isa_device.cc:73: warn: Returning zero for read from miscreg pmevcntr1_el0
build/ARM/arch/arm/isa_device.cc:73: warn: Returning zero for read from miscreg pmevcntr2_el0
warn: Returning zero for read from miscreg pmccfiltr_el0
build/ARM/arch/arm/isa_device.cc:73: warn: Returning zero for read from miscreg pmevtyper0_el0
build/ARM/arch/arm/isa_device.cc:73: warn: Returning zero for read from miscreg pmevcntr2_el0
build/ARM/arch/arm/isa_device.cc:73: warn: Returning zero for read from miscreg pmevcntr3_el0
build/ARM/arch/arm/isa_device.cc:73: warn: Returning zero for read from miscreg pmevtyper1_el0
build/ARM/arch/arm/isa_device.cc:73: warn: Returning zero for read from miscreg pmevcntr3_el0
build/ARM/arch/arm/isa_device.cc:73: warn: Returning zero for read from miscreg pmevcntr4_el0
build/ARM/arch/arm/isa_device.cc:73: warn: Returning zero for read from miscreg pmevtyper2_el0
build/ARM/arch/arm/isa_device.cc:73: warn: Returning zero for read from miscreg pmevcntr4_el0
build/ARM/arch/arm/isa_device.cc:73: warn: Returning zero for read from miscreg pmevcntr5_el0
build/ARM/arch/arm/isa_device.cc:73: warn: Returning zero for read from miscreg pmevtyper3_el0
build/ARM/arch/arm/isa_device.cc:73: warn: Returning zero for read from miscreg pmevcntr5_el0
build/ARM/arch/arm/isa_device.cc:73: warn: Returning zero for read from miscreg pmevtyper0_el0
build/ARM/arch/arm/isa_device.cc:73: warn: Returning zero for read from miscreg pmevtyper4_el0
build/ARM/arch/arm/isa_device.cc:73: warn: Returning zero for read from miscreg pmevtyper0_el0
build/ARM/arch/arm/isa_device.cc:73: warn: Returning zero for read from miscreg pmevtyper1_el0
build/ARM/arch/arm/isa_device.cc:73: warn: Returning zero for read from miscreg pmevtyper5_el0
build/ARM/arch/arm/isa_device.cc:73: warn: Returning zero for read from miscreg pmevtyper1_el0
build/ARM/arch/arm/isa_device.cc:73: warn: Returning zero for read from miscreg pmevtyper2_el0
build/ARM/arch/arm/isa_device.cc:73: warn: Returning zero for read from miscreg pmccfiltr_el0
build/ARM/arch/arm/isa_device.cc:73: warn: Returning zero for read from miscreg pmevtyper2_el0
build/ARM/arch/arm/isa_device.cc:73: warn: Returning zero for read from miscreg pmevtyper3_el0
build/ARM/arch/arm/isa_device.cc:73: warn: Returning zero for read from miscreg pmevtyper3_el0
build/ARM/arch/arm/isa_device.cc:73: warn: Returning zero for read from miscreg pmevtyper4_el0
build/ARM/arch/arm/isa_device.cc:73: warn: Returning zero for read from miscreg pmevtyper4_el0
build/ARM/arch/arm/isa_device.cc:73build/ARM/dev/arm/rv_ctrl.cc:178: warn: SCReg: Access to unknown device dcc0:site0:pos0:fn7:dev0
: warn: Returning zero for read from miscreg pmevtyper5_el0
build/ARM/arch/arm/isa_device.cc:73: warn: Returning zero for read from miscreg pmevtyper5_el0
build/ARM/arch/arm/isa_device.cc:73: warn: Returning zero for read from miscreg pmccfiltr_el0
build/ARM/arch/arm/isa_device.cc:73: warn: Returning zero for read from miscreg pmccfiltr_el0
709658717000: system.terminal: attach terminal 0
build/ARM/dev/arm/rv_ctrl.cc:123: warn: Tried to read RealView I/O at offset 0x48 that doesn't exist
build/ARM/dev/arm/rv_ctrl.cc:123: warn: Tried to read RealView I/O at offset 0x8 that doesn't exist
build/ARM/dev/arm/rv_ctrl.cc:123: warn: Tried to read RealView I/O at offset 0x48 that doesn't exist
build/ARM/dev/arm/rv_ctrl.cc:123: warn: Tried to read RealView I/O at offset 0x60 that doesn't exist
build/ARM/dev/arm/rv_ctrl.cc:199: warn: Tried to write RVIO at offset 0xa8 (data 0) that doesn't exist
build/ARM/dev/arm/rv_ctrl.cc:199: warn: Tried to write RVIO at offset 0xa8 (data 0) that doesn't exist
build/ARM/dev/arm/rv_ctrl.cc:199: warn: Tried to write RVIO at offset 0xa8 (data 0) that doesn't exist
build/ARM/dev/arm/rv_ctrl.cc:199: warn: Tried to write RVIO at offset 0xa8 (data 0) that doesn't exist
build/ARM/dev/arm/rv_ctrl.cc:199: warn: Tried to write RVIO at offset 0xa8 (data 0) that doesn't exist
build/ARM/dev/arm/rv_ctrl.cc:199: warn: Tried to write RVIO at offset 0xa8 (data 0) that doesn't exist
build/ARM/dev/arm/rv_ctrl.cc:199: warn: Tried to write RVIO at offset 0xa8 (data 0) that doesn't exist
build/ARM/dev/arm/rv_ctrl.cc:199: warn: Tried to write RVIO at offset 0xa8 (data 0) that doesn't exist
build/ARM/dev/arm/rv_ctrl.cc:199: warn: Tried to write RVIO at offset 0xa8 (data 0) that doesn't exist
build/ARM/dev/arm/rv_ctrl.cc:199: warn: Tried to write RVIO at offset 0xa8 (data 0) that doesn't exist
build/ARM/arch/arm/isa_device.cc:73: warn: Returning zero for read from miscreg pmintenset_el1
build/ARM/arch/arm/isa_device.cc:73: warn: Returning zero for read from miscreg pmintenclr_el1
build/ARM/arch/arm/isa_device.cc:73: warn: Returning zero for read from miscreg pmcr_el0
build/ARM/arch/arm/isa_device.cc:73: warn: Returning zero for read from miscreg pmcntenset_el0
build/ARM/arch/arm/isa_device.cc:73: warn: Returning zero for read from miscreg pmcntenclr_el0
build/ARM/arch/arm/isa_device.cc:73: warn: Returning zero for read from miscreg pmovsclr_el0
build/ARM/arch/arm/isa_device.cc:73: warn: Returning zero for read from miscreg pmswinc_el0
build/ARM/arch/arm/isa_device.cc:73: warn: Returning zero for read from miscreg pmselr_el0
build/ARM/arch/arm/isa_device.cc:73: warn: Returning zero for read from miscreg pmccntr_el0
build/ARM/arch/arm/isa_device.cc:73: warn: Returning zero for read from miscreg pmuserenr_el0
build/ARM/arch/arm/isa_device.cc:73: warn: Returning zero for read from miscreg pmovsset_el0
build/ARM/arch/arm/isa_device.cc:73: warn: Returning zero for read from miscreg pmevcntr0_el0
build/ARM/arch/arm/isa_device.cc:73: warn: Returning zero for read from miscreg pmevcntr1_el0
build/ARM/arch/arm/isa_device.cc:73: warn: Returning zero for read from miscreg pmevcntr2_el0
build/ARM/arch/arm/isa_device.cc:73: warn: Returning zero for read from miscreg pmevcntr3_el0
build/ARM/arch/arm/isa_device.cc:73: warn: Returning zero for read from miscreg pmevcntr4_el0
build/ARM/arch/arm/isa_device.cc:73: warn: Returning zero for read from miscreg pmevcntr5_el0
build/ARM/arch/arm/isa_device.cc:73: warn: Returning zero for read from miscreg pmevtyper0_el0
build/ARM/arch/arm/isa_device.cc:73: warn: Returning zero for read from miscreg pmevtyper1_el0
build/ARM/arch/arm/isa_device.cc:73: warn: Returning zero for read from miscreg pmevtyper2_el0
build/ARM/arch/arm/isa_device.cc:73: warn: Returning zero for read from miscreg pmevtyper3_el0
build/ARM/arch/arm/isa_device.cc:73: warn: Returning zero for read from miscreg pmevtyper4_el0
build/ARM/arch/arm/isa_device.cc:73: warn: Returning zero for read from miscreg pmevtyper5_el0
build/ARM/arch/arm/isa_device.cc:73: warn: Returning zero for read from miscreg pmccfiltr_el0
build/ARM/arch/arm/isa_device.cc:73: warn: Returning zero for read from miscreg pmintenset_el1
build/ARM/arch/arm/isa_device.cc:73: warn: Returning zero for read from miscreg pmintenclr_el1
build/ARM/arch/arm/isa_device.cc:73: warn: Returning zero for read from miscreg pmcr_el0
build/ARM/arch/arm/isa_device.cc:73: warn: Returning zero for read from miscreg pmcntenset_el0
build/ARM/arch/arm/isa_device.cc:73: warn: Returning zero for read from miscreg pmcntenclr_el0
build/ARM/arch/arm/isa_device.cc:73: warn: Returning zero for read from miscreg pmovsclr_el0
build/ARM/arch/arm/isa_device.cc:73: warn: Returning zero for read from miscreg pmswinc_el0
build/ARM/arch/arm/isa_device.cc:73: warn: Returning zero for read from miscreg pmselr_el0
build/ARM/arch/arm/isa_device.cc:73: warn: Returning zero for read from miscreg pmccntr_el0
build/ARM/arch/arm/isa_device.cc:73: warn: Returning zero for read from miscreg pmuserenr_el0
build/ARM/arch/arm/isa_device.cc:73: warn: Returning zero for read from miscreg pmovsset_el0
build/ARM/arch/arm/isa_device.cc:73: warn: Returning zero for read from miscreg pmevcntr0_el0
build/ARM/arch/arm/isa_device.cc:73: warn: Returning zero for read from miscreg pmevcntr1_el0
build/ARM/arch/arm/isa_device.cc:73: warn: Returning zero for read from miscreg pmevcntr2_el0
build/ARM/arch/arm/isa_device.cc:73: warn: Returning zero for read from miscreg pmevcntr3_el0
build/ARM/arch/arm/isa_device.cc:73: warn: Returning zero for read from miscreg pmevcntr4_el0
build/ARM/arch/arm/isa_device.cc:73: warn: Returning zero for read from miscreg pmevcntr5_el0
build/ARM/arch/arm/isa_device.cc:73: warn: Returning zero for read from miscreg pmevtyper0_el0
build/ARM/arch/arm/isa_device.cc:73: warn: Returning zero for read from miscreg pmevtyper1_el0
build/ARM/arch/arm/isa_device.cc:73: warn: Returning zero for read from miscreg pmevtyper2_el0
build/ARM/arch/arm/isa_device.cc:73: warn: Returning zero for read from miscreg pmevtyper3_el0
build/ARM/arch/arm/isa_device.cc:73: warn: Returning zero for read from miscreg pmevtyper4_el0
build/ARM/arch/arm/isa_device.cc:73: warn: Returning zero for read from miscreg pmevtyper5_el0
build/ARM/arch/arm/isa_device.cc:73: warn: Returning zero for read from miscreg pmccfiltr_el0
build/ARM/arch/arm/isa_device.cc:73: warn: Returning zero for read from miscreg pmintenset_el1
build/ARM/arch/arm/isa_device.cc:73: warn: Returning zero for read from miscreg pmintenclr_el1
build/ARM/arch/arm/isa_device.cc:73: warn: Returning zero for read from miscreg pmcr_el0
build/ARM/arch/arm/isa_device.cc:73: warn: Returning zero for read from miscreg pmcntenset_el0
build/ARM/arch/arm/isa_device.cc:73: warn: Returning zero for read from miscreg pmcntenclr_el0
build/ARM/arch/arm/isa_device.cc:73: warn: Returning zero for read from miscreg pmovsclr_el0
build/ARM/arch/arm/isa_device.cc:73: warn: Returning zero for read from miscreg pmswinc_el0
build/ARM/arch/arm/isa_device.cc:73: warn: Returning zero for read from miscreg pmselr_el0
build/ARM/arch/arm/isa_device.cc:73: warn: Returning zero for read from miscreg pmccntr_el0
build/ARM/arch/arm/isa_device.cc:73: warn: Returning zero for read from miscreg pmuserenr_el0
build/ARM/arch/arm/isa_device.cc:73: warn: Returning zero for read from miscreg pmovsset_el0
build/ARM/arch/arm/isa_device.cc:73: warn: Returning zero for read from miscreg pmevcntr0_el0
build/ARM/arch/arm/isa_device.cc:73: warn: Returning zero for read from miscreg pmevcntr1_el0
build/ARM/arch/arm/isa_device.cc:73: warn: Returning zero for read from miscreg pmevcntr2_el0
build/ARM/arch/arm/isa_device.cc:73: warn: Returning zero for read from miscreg pmevcntr3_el0
build/ARM/arch/arm/isa_device.cc:73: warn: Returning zero for read from miscreg pmevcntr4_el0
build/ARM/arch/arm/isa_device.cc:73: warn: Returning zero for read from miscreg pmevcntr5_el0
build/ARM/arch/arm/isa_device.cc:73: warn: Returning zero for read from miscreg pmevtyper0_el0
build/ARM/arch/arm/isa_device.cc:73: warn: Returning zero for read from miscreg pmevtyper1_el0
build/ARM/arch/arm/isa_device.cc:73: warn: Returning zero for read from miscreg pmevtyper2_el0
build/ARM/arch/arm/isa_device.cc:73: warn: Returning zero for read from miscreg pmevtyper3_el0
build/ARM/arch/arm/isa_device.cc:73: warn: Returning zero for read from miscreg pmevtyper4_el0
build/ARM/arch/arm/isa_device.cc:73: warn: Returning zero for read from miscreg pmevtyper5_el0
build/ARM/arch/arm/isa_device.cc:73: warn: Returning zero for read from miscreg pmccfiltr_el0
kvm warmup at curTick count:0
**** REAL SIMULATION ****
kvm warm up
build/ARM/sim/simulate.cc:194: info: Entering event queue @ 3395037582000.  Starting simulation...
build/ARM/sim/simulate.cc:194: info: Entering event queue @ 6395037582000.  Starting simulation...
build/ARM/sim/power_state.cc:106: warn: PowerState: Already in the requested power state, request ignored
build/ARM/arch/arm/isa.hh:750: warn: User mode does not have SPSR
build/ARM/arch/arm/isa.hh:750: warn: User mode does not have SPSR
build/ARM/arch/arm/isa.hh:750: warn: User mode does not have SPSR
build/ARM/arch/arm/isa.hh:750: warn: User mode does not have SPSR
build/ARM/arch/arm/isa.hh:750: warn: User mode does not have SPSR
build/ARM/arch/arm/isa.hh:750: warn: User mode does not have SPSR
build/ARM/arch/arm/isa.hh:750: warn: User mode does not have SPSR
build/ARM/arch/arm/isa.hh:750: warn: User mode does not have SPSR
detail switch cpu at  6395037582000
switching cpus
build/ARM/sim/simulate.cc:194: info: Entering event queue @ 6396037592000.  Starting simulation...
6396330949500: system.terminal: detach terminal 0
build/ARM/arch/arm/insts/pseudo.cc:173: warn: 	instruction 'bti' unimplemented
build/ARM/arch/arm/insts/pseudo.cc:173: warn: 	instruction 'csdb' unimplemented
93761060704000: system.terminal: attach terminal 0
93761465579500: system.terminal: detach terminal 0
build/ARM/sim/simulate.cc:194: info: Entering event queue @ 93788584605501.  Starting simulation...
build/ARM/arch/arm/isa_device.cc:73: warn: Returning zero for read from miscreg pmintenset_el1
build/ARM/arch/arm/isa_device.cc:73: warn: Returning zero for read from miscreg pmintenclr_el1
build/ARM/arch/arm/isa_device.cc:73: warn: Returning zero for read from miscreg pmcr_el0
build/ARM/arch/arm/isa_device.cc:73: warn: Returning zero for read from miscreg pmcntenset_el0
build/ARM/arch/arm/isa_device.cc:73: warn: Returning zero for read from miscreg pmcntenclr_el0
build/ARM/arch/arm/isa_device.cc:73: warn: Returning zero for read from miscreg pmovsclr_el0
build/ARM/arch/arm/isa_device.cc:73: warn: Returning zero for read from miscreg pmswinc_el0
build/ARM/arch/arm/isa_device.cc:73: warn: Returning zero for read from miscreg pmselr_el0
build/ARM/arch/arm/isa_device.cc:73: warn: Returning zero for read from miscreg pmccntr_el0
build/ARM/arch/arm/isa_device.cc:73: warn: Returning zero for read from miscreg pmuserenr_el0
build/ARM/arch/arm/isa_device.cc:73: warn: Returning zero for read from miscreg pmovsset_el0
build/ARM/arch/arm/isa_device.cc:73: warn: Returning zero for read from miscreg pmevcntr0_el0
build/ARM/arch/arm/isa_device.cc:73: warn: Returning zero for read from miscreg pmevcntr1_el0
build/ARM/arch/arm/isa_device.cc:73: warn: Returning zero for read from miscreg pmevcntr2_el0
build/ARM/arch/arm/isa_device.cc:73: warn: Returning zero for read from miscreg pmevcntr3_el0
build/ARM/arch/arm/isa_device.cc:73: warn: Returning zero for read from miscreg pmevcntr4_el0
build/ARM/arch/arm/isa_device.cc:73: warn: Returning zero for read from miscreg pmevcntr5_el0
build/ARM/arch/arm/isa_device.cc:73: warn: Returning zero for read from miscreg pmevtyper0_el0
build/ARM/arch/arm/isa_device.cc:73: warn: Returning zero for read from miscreg pmevtyper1_el0
build/ARM/arch/arm/isa_device.cc:73: warn: Returning zero for read from miscreg pmevtyper2_el0
build/ARM/arch/arm/isa_device.cc:73: warn: Returning zero for read from miscreg pmevtyper3_el0
build/ARM/arch/arm/isa_device.cc:73: warn: Returning zero for read from miscreg pmevtyper4_el0
build/ARM/arch/arm/isa_device.cc:73: warn: Returning zero for read from miscreg pmevtyper5_el0
build/ARM/arch/arm/isa_device.cc:73: warn: Returning zero for read from miscreg pmccfiltr_el0
build/ARM/arch/arm/isa.hh:750: warn: User mode does not have SPSR
build/ARM/arch/arm/isa.hh:750: warn: User mode does not have SPSR
build/ARM/arch/arm/isa_device.cc:73: warn: Returning zero for read from miscreg pmintenset_el1
build/ARM/arch/arm/isa_device.cc:73: warn: Returning zero for read from miscreg pmintenclr_el1
build/ARM/arch/arm/isa_device.cc:73: warn: Returning zero for read from miscreg pmcr_el0
build/ARM/arch/arm/isa_device.cc:73: warn: Returning zero for read from miscreg pmcntenset_el0
build/ARM/arch/arm/isa_device.cc:73: warn: Returning zero for read from miscreg pmcntenclr_el0
build/ARM/arch/arm/isa_device.cc:73: warn: Returning zero for read from miscreg pmovsclr_el0
build/ARM/arch/arm/isa_device.cc:73: warn: Returning zero for read from miscreg pmswinc_el0
build/ARM/arch/arm/isa_device.cc:73: warn: Returning zero for read from miscreg pmselr_el0
build/ARM/arch/arm/isa_device.cc:73: warn: Returning zero for read from miscreg pmccntr_el0
build/ARM/arch/arm/isa_device.cc:73: warn: Returning zero for read from miscreg pmuserenr_el0
build/ARM/arch/arm/isa_device.cc:73: warn: Returning zero for read from miscreg pmovsset_el0
build/ARM/arch/arm/isa_device.cc:73: warn: Returning zero for read from miscreg pmevcntr0_el0
build/ARM/arch/arm/isa_device.cc:73: warn: Returning zero for read from miscreg pmevcntr1_el0
build/ARM/arch/arm/isa_device.cc:73: warn: Returning zero for read from miscreg pmevcntr2_el0
build/ARM/arch/arm/isa_device.cc:73: warn: Returning zero for read from miscreg pmevcntr3_el0
build/ARM/arch/arm/isa_device.cc:73: warn: Returning zero for read from miscreg pmevcntr4_el0
build/ARM/arch/arm/isa_device.cc:73: warn: Returning zero for read from miscreg pmevcntr5_el0
build/ARM/arch/arm/isa_device.cc:73: warn: Returning zero for read from miscreg pmevtyper0_el0
build/ARM/arch/arm/isa_device.cc:73: warn: Returning zero for read from miscreg pmevtyper1_el0
build/ARM/arch/arm/isa_device.cc:73: warn: Returning zero for read from miscreg pmevtyper2_el0
build/ARM/arch/arm/isa_device.cc:73: warn: Returning zero for read from miscreg pmevtyper3_el0
build/ARM/arch/arm/isa_device.cc:73: warn: Returning zero for read from miscreg pmevtyper4_el0
build/ARM/arch/arm/isa_device.cc:73: warn: Returning zero for read from miscreg pmevtyper5_el0
build/ARM/arch/arm/isa_device.cc:73: warn: Returning zero for read from miscreg pmccfiltr_el0
build/ARM/arch/arm/isa_device.cc:73: warn: Returning zero for read from miscreg pmintenset_el1
build/ARM/arch/arm/isa_device.cc:73: warn: Returning zero for read from miscreg pmintenclr_el1
build/ARM/arch/arm/isa_device.cc:73: warn: Returning zero for read from miscreg pmcr_el0
build/ARM/arch/arm/isa_device.cc:73: warn: Returning zero for read from miscreg pmcntenset_el0
build/ARM/arch/arm/isa_device.cc:73: warn: Returning zero for read from miscreg pmcntenclr_el0
build/ARM/arch/arm/isa_device.cc:73: warn: Returning zero for read from miscreg pmovsclr_el0
build/ARM/arch/arm/isa_device.cc:73: warn: Returning zero for read from miscreg pmswinc_el0
build/ARM/arch/arm/isa_device.cc:73: warn: Returning zero for read from miscreg pmselr_el0
build/ARM/arch/arm/isa_device.cc:73: warn: Returning zero for read from miscreg pmccntr_el0
build/ARM/arch/arm/isa_device.cc:73: warn: Returning zero for read from miscreg pmuserenr_el0
build/ARM/arch/arm/isa_device.cc:73: warn: Returning zero for read from miscreg pmovsset_el0
build/ARM/arch/arm/isa_device.cc:73: warn: Returning zero for read from miscreg pmevcntr0_el0
build/ARM/arch/arm/isa_device.cc:73: warn: Returning zero for read from miscreg pmevcntr1_el0
build/ARM/arch/arm/isa_device.cc:73: warn: Returning zero for read from miscreg pmevcntr2_el0
build/ARM/arch/arm/isa_device.cc:73: warn: Returning zero for read from miscreg pmevcntr3_el0
build/ARM/arch/arm/isa_device.cc:73: warn: Returning zero for read from miscreg pmevcntr4_el0
build/ARM/arch/arm/isa_device.cc:73: warn: Returning zero for read from miscreg pmevcntr5_el0
build/ARM/arch/arm/isa_device.cc:73: warn: Returning zero for read from miscreg pmevtyper0_el0
build/ARM/arch/arm/isa_device.cc:73: warn: Returning zero for read from miscreg pmevtyper1_el0
build/ARM/arch/arm/isa_device.cc:73: warn: Returning zero for read from miscreg pmevtyper2_el0
build/ARM/arch/arm/isa_device.cc:73: warn: Returning zero for read from miscreg pmevtyper3_el0
build/ARM/arch/arm/isa_device.cc:73: warn: Returning zero for read from miscreg pmevtyper4_el0
build/ARM/arch/arm/isa_device.cc:73: warn: Returning zero for read from miscreg pmevtyper5_el0
build/ARM/arch/arm/isa_device.cc:73: warn: Returning zero for read from miscreg pmccfiltr_el0
build/ARM/arch/arm/isa_device.cc:73: warn: Returning zero for read from miscreg pmintenset_el1
build/ARM/arch/arm/isa_device.cc:73: warn: Returning zero for read from miscreg pmintenclr_el1
build/ARM/arch/arm/isa_device.cc:73: warn: Returning zero for read from miscreg pmcr_el0
build/ARM/arch/arm/isa_device.cc:73: warn: Returning zero for read from miscreg pmcntenset_el0
build/ARM/arch/arm/isa_device.cc:73: warn: Returning zero for read from miscreg pmcntenclr_el0
build/ARM/arch/arm/isa_device.cc:73: warn: Returning zero for read from miscreg pmovsclr_el0
build/ARM/arch/arm/isa_device.cc:73: warn: Returning zero for read from miscreg pmswinc_el0
build/ARM/arch/arm/isa_device.cc:73: warn: Returning zero for read from miscreg pmselr_el0
build/ARM/arch/arm/isa_device.cc:73: warn: Returning zero for read from miscreg pmccntr_el0
build/ARM/arch/arm/isa_device.cc:73: warn: Returning zero for read from miscreg pmuserenr_el0
build/ARM/arch/arm/isa_device.cc:73: warn: Returning zero for read from miscreg pmovsset_el0
build/ARM/arch/arm/isa_device.cc:73: warn: Returning zero for read from miscreg pmevcntr0_el0
build/ARM/arch/arm/isa_device.cc:73: warn: Returning zero for read from miscreg pmevcntr1_el0
build/ARM/arch/arm/isa_device.cc:73: warn: Returning zero for read from miscreg pmevcntr2_el0
build/ARM/arch/arm/isa_device.cc:73: warn: Returning zero for read from miscreg pmevcntr3_el0
build/ARM/arch/arm/isa_device.cc:73: warn: Returning zero for read from miscreg pmevcntr4_el0
build/ARM/arch/arm/isa_device.cc:73: warn: Returning zero for read from miscreg pmevcntr5_el0
build/ARM/arch/arm/isa_device.cc:73: warn: Returning zero for read from miscreg pmevtyper0_el0
build/ARM/arch/arm/isa_device.cc:73: warn: Returning zero for read from miscreg pmevtyper1_el0
build/ARM/arch/arm/isa_device.cc:73: warn: Returning zero for read from miscreg pmevtyper2_el0
build/ARM/arch/arm/isa_device.cc:73: warn: Returning zero for read from miscreg pmevtyper3_el0
build/ARM/arch/arm/isa_device.cc:73: warn: Returning zero for read from miscreg pmevtyper4_el0
build/ARM/arch/arm/isa_device.cc:73: warn: Returning zero for read from miscreg pmevtyper5_el0
build/ARM/arch/arm/isa_device.cc:73: warn: Returning zero for read from miscreg pmccfiltr_el0
kvm switch cpu at  93788584605501
switching cpus
93789588629500 finish switch
build/ARM/sim/simulate.cc:194: info: Entering event queue @ 93789588629500.  Starting simulation...
build/ARM/arch/arm/isa_device.cc:73: warn: Returning zero for read from miscreg pmintenset_el1
build/ARM/arch/arm/isa_device.cc:73: warn: Returning zero for read from miscreg pmintenclr_el1
build/ARM/arch/arm/isa_device.cc:73: warn: Returning zero for read from miscreg pmcr_el0
build/ARM/arch/arm/isa_device.cc:73: warn: Returning zero for read from miscreg pmcntenset_el0
build/ARM/arch/arm/isa_device.cc:73: warn: Returning zero for read from miscreg pmcntenclr_el0
build/ARM/arch/arm/isa_device.cc:73: warn: Returning zero for read from miscreg pmovsclr_el0
build/ARM/arch/arm/isa_device.cc:73: warn: Returning zero for read from miscreg pmswinc_el0
build/ARM/arch/arm/isa_device.cc:73: warn: Returning zero for read from miscreg pmselr_el0
build/ARM/arch/arm/isa_device.cc:73: warn: Returning zero for read from miscreg pmccntr_el0
build/ARM/arch/arm/isa_device.cc:73: warn: Returning zero for read from miscreg pmuserenr_el0
build/ARM/arch/arm/isa_device.cc:73: warn: Returning zero for read from miscreg pmovsset_el0
build/ARM/arch/arm/isa_device.cc:73: warn: Returning zero for read from miscreg pmevcntr0_el0
build/ARM/arch/arm/isa_device.cc:73: warn: Returning zero for read from miscreg pmevcntr1_el0
build/ARM/arch/arm/isa_device.cc:73: warn: Returning zero for read from miscreg pmevcntr2_el0
build/ARM/arch/arm/isa_device.cc:73: warn: Returning zero for read from miscreg pmevcntr3_el0
build/ARM/arch/arm/isa_device.cc:73: warn: Returning zero for read from miscreg pmevcntr4_el0
build/ARM/arch/arm/isa_device.cc:73: warn: Returning zero for read from miscreg pmevcntr5_el0
build/ARM/arch/arm/isa_device.cc:73: warn: Returning zero for read from miscreg pmevtyper0_el0
build/ARM/arch/arm/isa_device.cc:73: warn: Returning zero for read from miscreg pmevtyper1_el0
build/ARM/arch/arm/isa_device.cc:73: warn: Returning zero for read from miscreg pmevtyper2_el0
build/ARM/arch/arm/isa_device.cc:73: warn: Returning zero for read from miscreg pmevtyper3_el0
build/ARM/arch/arm/isa_device.cc:73: warn: Returning zero for read from miscreg pmevtyper4_el0
build/ARM/arch/arm/isa_device.cc:73: warn: Returning zero for read from miscreg pmevtyper5_el0
build/ARM/arch/arm/isa_device.cc:73: warn: Returning zero for read from miscreg pmccfiltr_el0
build/ARM/cpu/kvm/base.cc:572: hack: Pretending totalOps is equivalent to totalInsts()
Exiting @ tick 93937875311000 because m5_exit instruction encountered
