
---------- Begin Simulation Statistics ----------
simSeconds                                  11.495886                       # Number of seconds simulated (Second)
simTicks                                 11495886262500                       # Number of ticks simulated (Tick)
finalTick                                11495886262500                       # Number of ticks from beginning of simulation (restored from checkpoints and never reset) (Tick)
simFreq                                  1000000000000                       # The number of ticks per simulated second ((Tick/Second))
hostSeconds                                  87845.89                       # Real time elapsed on the host (Second)
hostTickRate                                130864245                       # The number of ticks simulated per host second (ticks/s) ((Tick/Second))
hostMemory                                   18087560                       # Number of bytes of host memory used (Byte)
simInsts                                  19321110442                       # Number of instructions simulated (Count)
simOps                                    21345240361                       # Number of ops (including micro ops) simulated (Count)
hostInstRate                                   219943                       # Simulator instruction rate (inst/s) ((Count/Second))
hostOpRate                                     242985                       # Simulator op (including micro ops) rate (op/s) ((Count/Second))
system.bridge.power_state.pwrStateResidencyTicks::UNDEFINED 11495886262500                       # Cumulative time (in ticks) in various power states (Tick)
system.clk_domain.clock                          1000                       # Clock period in ticks (Tick)
system.cpu0.numCycles                      7656803210                       # Number of cpu cycles simulated (Cycle)
system.cpu0.numWorkItemsStarted                     0                       # Number of work items this cpu started (Count)
system.cpu0.numWorkItemsCompleted                   0                       # Number of work items this cpu completed (Count)
system.cpu0.committedInsts                12496877779                       # Number of instructions committed (Count)
system.cpu0.numVMExits                         183234                       # total number of KVM exits (Count)
system.cpu0.numVMHalfEntries                        0                       # number of KVM entries to finalize pending operations (Count)
system.cpu0.numExitSignal                        8460                       # exits due to signal delivery (Count)
system.cpu0.numMMIO                            174774                       # number of VM exits due to memory mapped IO (Count)
system.cpu0.numCoalescedMMIO                        0                       # number of coalesced memory mapped IO requests (Count)
system.cpu0.numIO                                   0                       # number of VM exits due to legacy IO (Count)
system.cpu0.numHalt                                 0                       # number of VM exits due to wait for interrupt instructions (Count)
system.cpu0.numInterrupts                           0                       # number of interrupts delivered (Count)
system.cpu0.numHypercalls                           0                       # number of hypercalls (Count)
system.cpu0.dcache.demandHits::switch_cpus0.data    680350734                       # number of demand (read+write) hits (Count)
system.cpu0.dcache.demandHits::total        680350734                       # number of demand (read+write) hits (Count)
system.cpu0.dcache.overallHits::switch_cpus0.data    680358123                       # number of overall hits (Count)
system.cpu0.dcache.overallHits::total       680358123                       # number of overall hits (Count)
system.cpu0.dcache.demandMisses::switch_cpus0.data    878781764                       # number of demand (read+write) misses (Count)
system.cpu0.dcache.demandMisses::total      878781764                       # number of demand (read+write) misses (Count)
system.cpu0.dcache.overallMisses::switch_cpus0.data    878786986                       # number of overall misses (Count)
system.cpu0.dcache.overallMisses::total     878786986                       # number of overall misses (Count)
system.cpu0.dcache.demandMissLatency::switch_cpus0.data 96721400754810                       # number of demand (read+write) miss ticks (Tick)
system.cpu0.dcache.demandMissLatency::total 96721400754810                       # number of demand (read+write) miss ticks (Tick)
system.cpu0.dcache.overallMissLatency::switch_cpus0.data 96721400754810                       # number of overall miss ticks (Tick)
system.cpu0.dcache.overallMissLatency::total 96721400754810                       # number of overall miss ticks (Tick)
system.cpu0.dcache.demandAccesses::switch_cpus0.data   1559132498                       # number of demand (read+write) accesses (Count)
system.cpu0.dcache.demandAccesses::total   1559132498                       # number of demand (read+write) accesses (Count)
system.cpu0.dcache.overallAccesses::switch_cpus0.data   1559145109                       # number of overall (read+write) accesses (Count)
system.cpu0.dcache.overallAccesses::total   1559145109                       # number of overall (read+write) accesses (Count)
system.cpu0.dcache.demandMissRate::switch_cpus0.data     0.563635                       # miss rate for demand accesses (Ratio)
system.cpu0.dcache.demandMissRate::total     0.563635                       # miss rate for demand accesses (Ratio)
system.cpu0.dcache.overallMissRate::switch_cpus0.data     0.563634                       # miss rate for overall accesses (Ratio)
system.cpu0.dcache.overallMissRate::total     0.563634                       # miss rate for overall accesses (Ratio)
system.cpu0.dcache.demandAvgMissLatency::switch_cpus0.data 110063.049459                       # average overall miss latency in ticks ((Tick/Count))
system.cpu0.dcache.demandAvgMissLatency::total 110063.049459                       # average overall miss latency in ticks ((Tick/Count))
system.cpu0.dcache.overallAvgMissLatency::switch_cpus0.data 110062.395433                       # average overall miss latency ((Tick/Count))
system.cpu0.dcache.overallAvgMissLatency::total 110062.395433                       # average overall miss latency ((Tick/Count))
system.cpu0.dcache.blockedCycles::no_mshrs   2129149283                       # number of cycles access was blocked (Cycle)
system.cpu0.dcache.blockedCycles::no_targets         3356                       # number of cycles access was blocked (Cycle)
system.cpu0.dcache.blockedCauses::no_mshrs     28326062                       # number of times access was blocked (Count)
system.cpu0.dcache.blockedCauses::no_targets           18                       # number of times access was blocked (Count)
system.cpu0.dcache.avgBlocked::no_mshrs     75.165735                       # average number of cycles each access was blocked ((Cycle/Count))
system.cpu0.dcache.avgBlocked::no_targets   186.444444                       # average number of cycles each access was blocked ((Cycle/Count))
system.cpu0.dcache.writebacks::writebacks     33599845                       # number of writebacks (Count)
system.cpu0.dcache.writebacks::total         33599845                       # number of writebacks (Count)
system.cpu0.dcache.demandMshrHits::switch_cpus0.data    741492065                       # number of demand (read+write) MSHR hits (Count)
system.cpu0.dcache.demandMshrHits::total    741492065                       # number of demand (read+write) MSHR hits (Count)
system.cpu0.dcache.overallMshrHits::switch_cpus0.data    741492065                       # number of overall MSHR hits (Count)
system.cpu0.dcache.overallMshrHits::total    741492065                       # number of overall MSHR hits (Count)
system.cpu0.dcache.demandMshrMisses::switch_cpus0.data    137289699                       # number of demand (read+write) MSHR misses (Count)
system.cpu0.dcache.demandMshrMisses::total    137289699                       # number of demand (read+write) MSHR misses (Count)
system.cpu0.dcache.overallMshrMisses::switch_cpus0.data    137292972                       # number of overall MSHR misses (Count)
system.cpu0.dcache.overallMshrMisses::total    137292972                       # number of overall MSHR misses (Count)
system.cpu0.dcache.overallMshrUncacheable::switch_cpus0.data        58437                       # number of overall MSHR uncacheable misses (Count)
system.cpu0.dcache.overallMshrUncacheable::total        58437                       # number of overall MSHR uncacheable misses (Count)
system.cpu0.dcache.demandMshrMissLatency::switch_cpus0.data 17359010424216                       # number of demand (read+write) MSHR miss ticks (Tick)
system.cpu0.dcache.demandMshrMissLatency::total 17359010424216                       # number of demand (read+write) MSHR miss ticks (Tick)
system.cpu0.dcache.overallMshrMissLatency::switch_cpus0.data 17359171918716                       # number of overall MSHR miss ticks (Tick)
system.cpu0.dcache.overallMshrMissLatency::total 17359171918716                       # number of overall MSHR miss ticks (Tick)
system.cpu0.dcache.overallMshrUncacheableLatency::switch_cpus0.data   3125429000                       # number of overall MSHR uncacheable ticks (Tick)
system.cpu0.dcache.overallMshrUncacheableLatency::total   3125429000                       # number of overall MSHR uncacheable ticks (Tick)
system.cpu0.dcache.demandMshrMissRate::switch_cpus0.data     0.088055                       # mshr miss ratio for demand accesses (Ratio)
system.cpu0.dcache.demandMshrMissRate::total     0.088055                       # mshr miss ratio for demand accesses (Ratio)
system.cpu0.dcache.overallMshrMissRate::switch_cpus0.data     0.088057                       # mshr miss ratio for overall accesses (Ratio)
system.cpu0.dcache.overallMshrMissRate::total     0.088057                       # mshr miss ratio for overall accesses (Ratio)
system.cpu0.dcache.demandAvgMshrMissLatency::switch_cpus0.data 126440.734816                       # average overall mshr miss latency ((Tick/Count))
system.cpu0.dcache.demandAvgMshrMissLatency::total 126440.734816                       # average overall mshr miss latency ((Tick/Count))
system.cpu0.dcache.overallAvgMshrMissLatency::switch_cpus0.data 126438.896805                       # average overall mshr miss latency ((Tick/Count))
system.cpu0.dcache.overallAvgMshrMissLatency::total 126438.896805                       # average overall mshr miss latency ((Tick/Count))
system.cpu0.dcache.overallAvgMshrUncacheableLatency::switch_cpus0.data 53483.734620                       # average overall mshr uncacheable latency ((Tick/Count))
system.cpu0.dcache.overallAvgMshrUncacheableLatency::total 53483.734620                       # average overall mshr uncacheable latency ((Tick/Count))
system.cpu0.dcache.replacements             137310655                       # number of replacements (Count)
system.cpu0.dcache.LoadLockedReq.hits::switch_cpus0.data           87                       # number of LoadLockedReq hits (Count)
system.cpu0.dcache.LoadLockedReq.hits::total           87                       # number of LoadLockedReq hits (Count)
system.cpu0.dcache.LoadLockedReq.misses::switch_cpus0.data            1                       # number of LoadLockedReq misses (Count)
system.cpu0.dcache.LoadLockedReq.misses::total            1                       # number of LoadLockedReq misses (Count)
system.cpu0.dcache.LoadLockedReq.missLatency::switch_cpus0.data       129000                       # number of LoadLockedReq miss ticks (Tick)
system.cpu0.dcache.LoadLockedReq.missLatency::total       129000                       # number of LoadLockedReq miss ticks (Tick)
system.cpu0.dcache.LoadLockedReq.accesses::switch_cpus0.data           88                       # number of LoadLockedReq accesses(hits+misses) (Count)
system.cpu0.dcache.LoadLockedReq.accesses::total           88                       # number of LoadLockedReq accesses(hits+misses) (Count)
system.cpu0.dcache.LoadLockedReq.missRate::switch_cpus0.data     0.011364                       # miss rate for LoadLockedReq accesses (Ratio)
system.cpu0.dcache.LoadLockedReq.missRate::total     0.011364                       # miss rate for LoadLockedReq accesses (Ratio)
system.cpu0.dcache.LoadLockedReq.avgMissLatency::switch_cpus0.data       129000                       # average LoadLockedReq miss latency ((Tick/Count))
system.cpu0.dcache.LoadLockedReq.avgMissLatency::total       129000                       # average LoadLockedReq miss latency ((Tick/Count))
system.cpu0.dcache.LoadLockedReq.mshrMisses::switch_cpus0.data            1                       # number of LoadLockedReq MSHR misses (Count)
system.cpu0.dcache.LoadLockedReq.mshrMisses::total            1                       # number of LoadLockedReq MSHR misses (Count)
system.cpu0.dcache.LoadLockedReq.mshrMissLatency::switch_cpus0.data       128000                       # number of LoadLockedReq MSHR miss ticks (Tick)
system.cpu0.dcache.LoadLockedReq.mshrMissLatency::total       128000                       # number of LoadLockedReq MSHR miss ticks (Tick)
system.cpu0.dcache.LoadLockedReq.mshrMissRate::switch_cpus0.data     0.011364                       # mshr miss rate for LoadLockedReq accesses (Ratio)
system.cpu0.dcache.LoadLockedReq.mshrMissRate::total     0.011364                       # mshr miss rate for LoadLockedReq accesses (Ratio)
system.cpu0.dcache.LoadLockedReq.avgMshrMissLatency::switch_cpus0.data       128000                       # average LoadLockedReq mshr miss latency ((Tick/Count))
system.cpu0.dcache.LoadLockedReq.avgMshrMissLatency::total       128000                       # average LoadLockedReq mshr miss latency ((Tick/Count))
system.cpu0.dcache.ReadReq.hits::switch_cpus0.data    651371488                       # number of ReadReq hits (Count)
system.cpu0.dcache.ReadReq.hits::total      651371488                       # number of ReadReq hits (Count)
system.cpu0.dcache.ReadReq.misses::switch_cpus0.data    616702366                       # number of ReadReq misses (Count)
system.cpu0.dcache.ReadReq.misses::total    616702366                       # number of ReadReq misses (Count)
system.cpu0.dcache.ReadReq.missLatency::switch_cpus0.data 68026440073500                       # number of ReadReq miss ticks (Tick)
system.cpu0.dcache.ReadReq.missLatency::total 68026440073500                       # number of ReadReq miss ticks (Tick)
system.cpu0.dcache.ReadReq.accesses::switch_cpus0.data   1268073854                       # number of ReadReq accesses(hits+misses) (Count)
system.cpu0.dcache.ReadReq.accesses::total   1268073854                       # number of ReadReq accesses(hits+misses) (Count)
system.cpu0.dcache.ReadReq.missRate::switch_cpus0.data     0.486330                       # miss rate for ReadReq accesses (Ratio)
system.cpu0.dcache.ReadReq.missRate::total     0.486330                       # miss rate for ReadReq accesses (Ratio)
system.cpu0.dcache.ReadReq.avgMissLatency::switch_cpus0.data 110306.760317                       # average ReadReq miss latency ((Tick/Count))
system.cpu0.dcache.ReadReq.avgMissLatency::total 110306.760317                       # average ReadReq miss latency ((Tick/Count))
system.cpu0.dcache.ReadReq.mshrHits::switch_cpus0.data    512497889                       # number of ReadReq MSHR hits (Count)
system.cpu0.dcache.ReadReq.mshrHits::total    512497889                       # number of ReadReq MSHR hits (Count)
system.cpu0.dcache.ReadReq.mshrMisses::switch_cpus0.data    104204477                       # number of ReadReq MSHR misses (Count)
system.cpu0.dcache.ReadReq.mshrMisses::total    104204477                       # number of ReadReq MSHR misses (Count)
system.cpu0.dcache.ReadReq.mshrUncacheable::switch_cpus0.data        50938                       # number of ReadReq MSHR uncacheable (Count)
system.cpu0.dcache.ReadReq.mshrUncacheable::total        50938                       # number of ReadReq MSHR uncacheable (Count)
system.cpu0.dcache.ReadReq.mshrMissLatency::switch_cpus0.data 12888644929000                       # number of ReadReq MSHR miss ticks (Tick)
system.cpu0.dcache.ReadReq.mshrMissLatency::total 12888644929000                       # number of ReadReq MSHR miss ticks (Tick)
system.cpu0.dcache.ReadReq.mshrUncacheableLatency::switch_cpus0.data   3125429000                       # number of ReadReq MSHR uncacheable ticks (Tick)
system.cpu0.dcache.ReadReq.mshrUncacheableLatency::total   3125429000                       # number of ReadReq MSHR uncacheable ticks (Tick)
system.cpu0.dcache.ReadReq.mshrMissRate::switch_cpus0.data     0.082175                       # mshr miss rate for ReadReq accesses (Ratio)
system.cpu0.dcache.ReadReq.mshrMissRate::total     0.082175                       # mshr miss rate for ReadReq accesses (Ratio)
system.cpu0.dcache.ReadReq.avgMshrMissLatency::switch_cpus0.data 123686.095838                       # average ReadReq mshr miss latency ((Tick/Count))
system.cpu0.dcache.ReadReq.avgMshrMissLatency::total 123686.095838                       # average ReadReq mshr miss latency ((Tick/Count))
system.cpu0.dcache.ReadReq.avgMshrUncacheableLatency::switch_cpus0.data 61357.513055                       # average ReadReq mshr uncacheable latency ((Tick/Count))
system.cpu0.dcache.ReadReq.avgMshrUncacheableLatency::total 61357.513055                       # average ReadReq mshr uncacheable latency ((Tick/Count))
system.cpu0.dcache.SoftPFReq.hits::switch_cpus0.data         7389                       # number of SoftPFReq hits (Count)
system.cpu0.dcache.SoftPFReq.hits::total         7389                       # number of SoftPFReq hits (Count)
system.cpu0.dcache.SoftPFReq.misses::switch_cpus0.data         5222                       # number of SoftPFReq misses (Count)
system.cpu0.dcache.SoftPFReq.misses::total         5222                       # number of SoftPFReq misses (Count)
system.cpu0.dcache.SoftPFReq.accesses::switch_cpus0.data        12611                       # number of SoftPFReq accesses(hits+misses) (Count)
system.cpu0.dcache.SoftPFReq.accesses::total        12611                       # number of SoftPFReq accesses(hits+misses) (Count)
system.cpu0.dcache.SoftPFReq.missRate::switch_cpus0.data     0.414083                       # miss rate for SoftPFReq accesses (Ratio)
system.cpu0.dcache.SoftPFReq.missRate::total     0.414083                       # miss rate for SoftPFReq accesses (Ratio)
system.cpu0.dcache.SoftPFReq.mshrMisses::switch_cpus0.data         3273                       # number of SoftPFReq MSHR misses (Count)
system.cpu0.dcache.SoftPFReq.mshrMisses::total         3273                       # number of SoftPFReq MSHR misses (Count)
system.cpu0.dcache.SoftPFReq.mshrMissLatency::switch_cpus0.data    161494500                       # number of SoftPFReq MSHR miss ticks (Tick)
system.cpu0.dcache.SoftPFReq.mshrMissLatency::total    161494500                       # number of SoftPFReq MSHR miss ticks (Tick)
system.cpu0.dcache.SoftPFReq.mshrMissRate::switch_cpus0.data     0.259535                       # mshr miss rate for SoftPFReq accesses (Ratio)
system.cpu0.dcache.SoftPFReq.mshrMissRate::total     0.259535                       # mshr miss rate for SoftPFReq accesses (Ratio)
system.cpu0.dcache.SoftPFReq.avgMshrMissLatency::switch_cpus0.data 49341.429881                       # average SoftPFReq mshr miss latency ((Tick/Count))
system.cpu0.dcache.SoftPFReq.avgMshrMissLatency::total 49341.429881                       # average SoftPFReq mshr miss latency ((Tick/Count))
system.cpu0.dcache.StoreCondReq.hits::switch_cpus0.data           66                       # number of StoreCondReq hits (Count)
system.cpu0.dcache.StoreCondReq.hits::total           66                       # number of StoreCondReq hits (Count)
system.cpu0.dcache.StoreCondReq.accesses::switch_cpus0.data           66                       # number of StoreCondReq accesses(hits+misses) (Count)
system.cpu0.dcache.StoreCondReq.accesses::total           66                       # number of StoreCondReq accesses(hits+misses) (Count)
system.cpu0.dcache.SwapReq.hits::switch_cpus0.data       308907                       # number of SwapReq hits (Count)
system.cpu0.dcache.SwapReq.hits::total         308907                       # number of SwapReq hits (Count)
system.cpu0.dcache.SwapReq.misses::switch_cpus0.data        35544                       # number of SwapReq misses (Count)
system.cpu0.dcache.SwapReq.misses::total        35544                       # number of SwapReq misses (Count)
system.cpu0.dcache.SwapReq.missLatency::switch_cpus0.data   3831065000                       # number of SwapReq miss ticks (Tick)
system.cpu0.dcache.SwapReq.missLatency::total   3831065000                       # number of SwapReq miss ticks (Tick)
system.cpu0.dcache.SwapReq.accesses::switch_cpus0.data       344451                       # number of SwapReq accesses(hits+misses) (Count)
system.cpu0.dcache.SwapReq.accesses::total       344451                       # number of SwapReq accesses(hits+misses) (Count)
system.cpu0.dcache.SwapReq.missRate::switch_cpus0.data     0.103190                       # miss rate for SwapReq accesses (Ratio)
system.cpu0.dcache.SwapReq.missRate::total     0.103190                       # miss rate for SwapReq accesses (Ratio)
system.cpu0.dcache.SwapReq.avgMissLatency::switch_cpus0.data 107783.732838                       # average SwapReq miss latency ((Tick/Count))
system.cpu0.dcache.SwapReq.avgMissLatency::total 107783.732838                       # average SwapReq miss latency ((Tick/Count))
system.cpu0.dcache.SwapReq.mshrHits::switch_cpus0.data            1                       # number of SwapReq MSHR hits (Count)
system.cpu0.dcache.SwapReq.mshrHits::total            1                       # number of SwapReq MSHR hits (Count)
system.cpu0.dcache.SwapReq.mshrMisses::switch_cpus0.data        35543                       # number of SwapReq MSHR misses (Count)
system.cpu0.dcache.SwapReq.mshrMisses::total        35543                       # number of SwapReq MSHR misses (Count)
system.cpu0.dcache.SwapReq.mshrMissLatency::switch_cpus0.data   3795521000                       # number of SwapReq MSHR miss ticks (Tick)
system.cpu0.dcache.SwapReq.mshrMissLatency::total   3795521000                       # number of SwapReq MSHR miss ticks (Tick)
system.cpu0.dcache.SwapReq.mshrMissRate::switch_cpus0.data     0.103187                       # mshr miss rate for SwapReq accesses (Ratio)
system.cpu0.dcache.SwapReq.mshrMissRate::total     0.103187                       # mshr miss rate for SwapReq accesses (Ratio)
system.cpu0.dcache.SwapReq.avgMshrMissLatency::switch_cpus0.data 106786.737192                       # average SwapReq mshr miss latency ((Tick/Count))
system.cpu0.dcache.SwapReq.avgMshrMissLatency::total 106786.737192                       # average SwapReq mshr miss latency ((Tick/Count))
system.cpu0.dcache.WriteLineReq.hits::switch_cpus0.data           92                       # number of WriteLineReq hits (Count)
system.cpu0.dcache.WriteLineReq.hits::total           92                       # number of WriteLineReq hits (Count)
system.cpu0.dcache.WriteLineReq.misses::switch_cpus0.data         4050                       # number of WriteLineReq misses (Count)
system.cpu0.dcache.WriteLineReq.misses::total         4050                       # number of WriteLineReq misses (Count)
system.cpu0.dcache.WriteLineReq.missLatency::switch_cpus0.data    209814868                       # number of WriteLineReq miss ticks (Tick)
system.cpu0.dcache.WriteLineReq.missLatency::total    209814868                       # number of WriteLineReq miss ticks (Tick)
system.cpu0.dcache.WriteLineReq.accesses::switch_cpus0.data         4142                       # number of WriteLineReq accesses(hits+misses) (Count)
system.cpu0.dcache.WriteLineReq.accesses::total         4142                       # number of WriteLineReq accesses(hits+misses) (Count)
system.cpu0.dcache.WriteLineReq.missRate::switch_cpus0.data     0.977789                       # miss rate for WriteLineReq accesses (Ratio)
system.cpu0.dcache.WriteLineReq.missRate::total     0.977789                       # miss rate for WriteLineReq accesses (Ratio)
system.cpu0.dcache.WriteLineReq.avgMissLatency::switch_cpus0.data 51806.140247                       # average WriteLineReq miss latency ((Tick/Count))
system.cpu0.dcache.WriteLineReq.avgMissLatency::total 51806.140247                       # average WriteLineReq miss latency ((Tick/Count))
system.cpu0.dcache.WriteLineReq.mshrHits::switch_cpus0.data            4                       # number of WriteLineReq MSHR hits (Count)
system.cpu0.dcache.WriteLineReq.mshrHits::total            4                       # number of WriteLineReq MSHR hits (Count)
system.cpu0.dcache.WriteLineReq.mshrMisses::switch_cpus0.data         4046                       # number of WriteLineReq MSHR misses (Count)
system.cpu0.dcache.WriteLineReq.mshrMisses::total         4046                       # number of WriteLineReq MSHR misses (Count)
system.cpu0.dcache.WriteLineReq.mshrMissLatency::switch_cpus0.data    205675868                       # number of WriteLineReq MSHR miss ticks (Tick)
system.cpu0.dcache.WriteLineReq.mshrMissLatency::total    205675868                       # number of WriteLineReq MSHR miss ticks (Tick)
system.cpu0.dcache.WriteLineReq.mshrMissRate::switch_cpus0.data     0.976823                       # mshr miss rate for WriteLineReq accesses (Ratio)
system.cpu0.dcache.WriteLineReq.mshrMissRate::total     0.976823                       # mshr miss rate for WriteLineReq accesses (Ratio)
system.cpu0.dcache.WriteLineReq.avgMshrMissLatency::switch_cpus0.data 50834.371725                       # average WriteLineReq mshr miss latency ((Tick/Count))
system.cpu0.dcache.WriteLineReq.avgMshrMissLatency::total 50834.371725                       # average WriteLineReq mshr miss latency ((Tick/Count))
system.cpu0.dcache.WriteReq.hits::switch_cpus0.data     28979154                       # number of WriteReq hits (Count)
system.cpu0.dcache.WriteReq.hits::total      28979154                       # number of WriteReq hits (Count)
system.cpu0.dcache.WriteReq.misses::switch_cpus0.data    262075348                       # number of WriteReq misses (Count)
system.cpu0.dcache.WriteReq.misses::total    262075348                       # number of WriteReq misses (Count)
system.cpu0.dcache.WriteReq.missLatency::switch_cpus0.data 28694750866442                       # number of WriteReq miss ticks (Tick)
system.cpu0.dcache.WriteReq.missLatency::total 28694750866442                       # number of WriteReq miss ticks (Tick)
system.cpu0.dcache.WriteReq.accesses::switch_cpus0.data    291054502                       # number of WriteReq accesses(hits+misses) (Count)
system.cpu0.dcache.WriteReq.accesses::total    291054502                       # number of WriteReq accesses(hits+misses) (Count)
system.cpu0.dcache.WriteReq.missRate::switch_cpus0.data     0.900434                       # miss rate for WriteReq accesses (Ratio)
system.cpu0.dcache.WriteReq.missRate::total     0.900434                       # miss rate for WriteReq accesses (Ratio)
system.cpu0.dcache.WriteReq.avgMissLatency::switch_cpus0.data 109490.461752                       # average WriteReq miss latency ((Tick/Count))
system.cpu0.dcache.WriteReq.avgMissLatency::total 109490.461752                       # average WriteReq miss latency ((Tick/Count))
system.cpu0.dcache.WriteReq.mshrHits::switch_cpus0.data    228994172                       # number of WriteReq MSHR hits (Count)
system.cpu0.dcache.WriteReq.mshrHits::total    228994172                       # number of WriteReq MSHR hits (Count)
system.cpu0.dcache.WriteReq.mshrMisses::switch_cpus0.data     33081176                       # number of WriteReq MSHR misses (Count)
system.cpu0.dcache.WriteReq.mshrMisses::total     33081176                       # number of WriteReq MSHR misses (Count)
system.cpu0.dcache.WriteReq.mshrUncacheable::switch_cpus0.data         7499                       # number of WriteReq MSHR uncacheable (Count)
system.cpu0.dcache.WriteReq.mshrUncacheable::total         7499                       # number of WriteReq MSHR uncacheable (Count)
system.cpu0.dcache.WriteReq.mshrMissLatency::switch_cpus0.data 4470159819348                       # number of WriteReq MSHR miss ticks (Tick)
system.cpu0.dcache.WriteReq.mshrMissLatency::total 4470159819348                       # number of WriteReq MSHR miss ticks (Tick)
system.cpu0.dcache.WriteReq.mshrMissRate::switch_cpus0.data     0.113660                       # mshr miss rate for WriteReq accesses (Ratio)
system.cpu0.dcache.WriteReq.mshrMissRate::total     0.113660                       # mshr miss rate for WriteReq accesses (Ratio)
system.cpu0.dcache.WriteReq.avgMshrMissLatency::switch_cpus0.data 135126.992443                       # average WriteReq mshr miss latency ((Tick/Count))
system.cpu0.dcache.WriteReq.avgMshrMissLatency::total 135126.992443                       # average WriteReq mshr miss latency ((Tick/Count))
system.cpu0.dcache.power_state.pwrStateResidencyTicks::UNDEFINED 11495886262500                       # Cumulative time (in ticks) in various power states (Tick)
system.cpu0.dcache.tags.tagsInUse          522.217320                       # Average ticks per tags in use ((Tick/Count))
system.cpu0.dcache.tags.totalRefs           818010396                       # Total number of references to valid blocks. (Count)
system.cpu0.dcache.tags.sampledRefs         137312002                       # Sample count of references to valid blocks. (Count)
system.cpu0.dcache.tags.avgRefs              5.957312                       # Average number of references to valid blocks. ((Count/Count))
system.cpu0.dcache.tags.warmupTick       5629265716500                       # The tick when the warmup percentage was hit. (Tick)
system.cpu0.dcache.tags.occupancies::switch_cpus0.data   522.217320                       # Average occupied blocks per tick, per requestor ((Count/Tick))
system.cpu0.dcache.tags.avgOccs::switch_cpus0.data     0.509978                       # Average percentage of cache occupancy ((Ratio/Tick))
system.cpu0.dcache.tags.avgOccs::total       0.509978                       # Average percentage of cache occupancy ((Ratio/Tick))
system.cpu0.dcache.tags.tagAccesses        6375270858                       # Number of tag accesses (Count)
system.cpu0.dcache.tags.dataAccesses       6375270858                       # Number of data accesses (Count)
system.cpu0.dcache.tags.power_state.pwrStateResidencyTicks::UNDEFINED 11495886262500                       # Cumulative time (in ticks) in various power states (Tick)
system.cpu0.icache.demandHits::switch_cpus0.inst     42114886                       # number of demand (read+write) hits (Count)
system.cpu0.icache.demandHits::total         42114886                       # number of demand (read+write) hits (Count)
system.cpu0.icache.overallHits::switch_cpus0.inst     42114886                       # number of overall hits (Count)
system.cpu0.icache.overallHits::total        42114886                       # number of overall hits (Count)
system.cpu0.icache.demandMisses::switch_cpus0.inst      1337666                       # number of demand (read+write) misses (Count)
system.cpu0.icache.demandMisses::total        1337666                       # number of demand (read+write) misses (Count)
system.cpu0.icache.overallMisses::switch_cpus0.inst      1337666                       # number of overall misses (Count)
system.cpu0.icache.overallMisses::total       1337666                       # number of overall misses (Count)
system.cpu0.icache.demandMissLatency::switch_cpus0.inst 139255773470                       # number of demand (read+write) miss ticks (Tick)
system.cpu0.icache.demandMissLatency::total 139255773470                       # number of demand (read+write) miss ticks (Tick)
system.cpu0.icache.overallMissLatency::switch_cpus0.inst 139255773470                       # number of overall miss ticks (Tick)
system.cpu0.icache.overallMissLatency::total 139255773470                       # number of overall miss ticks (Tick)
system.cpu0.icache.demandAccesses::switch_cpus0.inst     43452552                       # number of demand (read+write) accesses (Count)
system.cpu0.icache.demandAccesses::total     43452552                       # number of demand (read+write) accesses (Count)
system.cpu0.icache.overallAccesses::switch_cpus0.inst     43452552                       # number of overall (read+write) accesses (Count)
system.cpu0.icache.overallAccesses::total     43452552                       # number of overall (read+write) accesses (Count)
system.cpu0.icache.demandMissRate::switch_cpus0.inst     0.030785                       # miss rate for demand accesses (Ratio)
system.cpu0.icache.demandMissRate::total     0.030785                       # miss rate for demand accesses (Ratio)
system.cpu0.icache.overallMissRate::switch_cpus0.inst     0.030785                       # miss rate for overall accesses (Ratio)
system.cpu0.icache.overallMissRate::total     0.030785                       # miss rate for overall accesses (Ratio)
system.cpu0.icache.demandAvgMissLatency::switch_cpus0.inst 104103.545631                       # average overall miss latency in ticks ((Tick/Count))
system.cpu0.icache.demandAvgMissLatency::total 104103.545631                       # average overall miss latency in ticks ((Tick/Count))
system.cpu0.icache.overallAvgMissLatency::switch_cpus0.inst 104103.545631                       # average overall miss latency ((Tick/Count))
system.cpu0.icache.overallAvgMissLatency::total 104103.545631                       # average overall miss latency ((Tick/Count))
system.cpu0.icache.blockedCycles::no_mshrs        67010                       # number of cycles access was blocked (Cycle)
system.cpu0.icache.blockedCycles::no_targets            0                       # number of cycles access was blocked (Cycle)
system.cpu0.icache.blockedCauses::no_mshrs          861                       # number of times access was blocked (Count)
system.cpu0.icache.blockedCauses::no_targets            0                       # number of times access was blocked (Count)
system.cpu0.icache.avgBlocked::no_mshrs     77.828107                       # average number of cycles each access was blocked ((Cycle/Count))
system.cpu0.icache.avgBlocked::no_targets          nan                       # average number of cycles each access was blocked ((Cycle/Count))
system.cpu0.icache.writebacks::writebacks      1176867                       # number of writebacks (Count)
system.cpu0.icache.writebacks::total          1176867                       # number of writebacks (Count)
system.cpu0.icache.demandMshrHits::switch_cpus0.inst       159775                       # number of demand (read+write) MSHR hits (Count)
system.cpu0.icache.demandMshrHits::total       159775                       # number of demand (read+write) MSHR hits (Count)
system.cpu0.icache.overallMshrHits::switch_cpus0.inst       159775                       # number of overall MSHR hits (Count)
system.cpu0.icache.overallMshrHits::total       159775                       # number of overall MSHR hits (Count)
system.cpu0.icache.demandMshrMisses::switch_cpus0.inst      1177891                       # number of demand (read+write) MSHR misses (Count)
system.cpu0.icache.demandMshrMisses::total      1177891                       # number of demand (read+write) MSHR misses (Count)
system.cpu0.icache.overallMshrMisses::switch_cpus0.inst      1177891                       # number of overall MSHR misses (Count)
system.cpu0.icache.overallMshrMisses::total      1177891                       # number of overall MSHR misses (Count)
system.cpu0.icache.demandMshrMissLatency::switch_cpus0.inst 123261099976                       # number of demand (read+write) MSHR miss ticks (Tick)
system.cpu0.icache.demandMshrMissLatency::total 123261099976                       # number of demand (read+write) MSHR miss ticks (Tick)
system.cpu0.icache.overallMshrMissLatency::switch_cpus0.inst 123261099976                       # number of overall MSHR miss ticks (Tick)
system.cpu0.icache.overallMshrMissLatency::total 123261099976                       # number of overall MSHR miss ticks (Tick)
system.cpu0.icache.demandMshrMissRate::switch_cpus0.inst     0.027108                       # mshr miss ratio for demand accesses (Ratio)
system.cpu0.icache.demandMshrMissRate::total     0.027108                       # mshr miss ratio for demand accesses (Ratio)
system.cpu0.icache.overallMshrMissRate::switch_cpus0.inst     0.027108                       # mshr miss ratio for overall accesses (Ratio)
system.cpu0.icache.overallMshrMissRate::total     0.027108                       # mshr miss ratio for overall accesses (Ratio)
system.cpu0.icache.demandAvgMshrMissLatency::switch_cpus0.inst 104645.591125                       # average overall mshr miss latency ((Tick/Count))
system.cpu0.icache.demandAvgMshrMissLatency::total 104645.591125                       # average overall mshr miss latency ((Tick/Count))
system.cpu0.icache.overallAvgMshrMissLatency::switch_cpus0.inst 104645.591125                       # average overall mshr miss latency ((Tick/Count))
system.cpu0.icache.overallAvgMshrMissLatency::total 104645.591125                       # average overall mshr miss latency ((Tick/Count))
system.cpu0.icache.replacements               1176867                       # number of replacements (Count)
system.cpu0.icache.ReadReq.hits::switch_cpus0.inst     42114886                       # number of ReadReq hits (Count)
system.cpu0.icache.ReadReq.hits::total       42114886                       # number of ReadReq hits (Count)
system.cpu0.icache.ReadReq.misses::switch_cpus0.inst      1337666                       # number of ReadReq misses (Count)
system.cpu0.icache.ReadReq.misses::total      1337666                       # number of ReadReq misses (Count)
system.cpu0.icache.ReadReq.missLatency::switch_cpus0.inst 139255773470                       # number of ReadReq miss ticks (Tick)
system.cpu0.icache.ReadReq.missLatency::total 139255773470                       # number of ReadReq miss ticks (Tick)
system.cpu0.icache.ReadReq.accesses::switch_cpus0.inst     43452552                       # number of ReadReq accesses(hits+misses) (Count)
system.cpu0.icache.ReadReq.accesses::total     43452552                       # number of ReadReq accesses(hits+misses) (Count)
system.cpu0.icache.ReadReq.missRate::switch_cpus0.inst     0.030785                       # miss rate for ReadReq accesses (Ratio)
system.cpu0.icache.ReadReq.missRate::total     0.030785                       # miss rate for ReadReq accesses (Ratio)
system.cpu0.icache.ReadReq.avgMissLatency::switch_cpus0.inst 104103.545631                       # average ReadReq miss latency ((Tick/Count))
system.cpu0.icache.ReadReq.avgMissLatency::total 104103.545631                       # average ReadReq miss latency ((Tick/Count))
system.cpu0.icache.ReadReq.mshrHits::switch_cpus0.inst       159775                       # number of ReadReq MSHR hits (Count)
system.cpu0.icache.ReadReq.mshrHits::total       159775                       # number of ReadReq MSHR hits (Count)
system.cpu0.icache.ReadReq.mshrMisses::switch_cpus0.inst      1177891                       # number of ReadReq MSHR misses (Count)
system.cpu0.icache.ReadReq.mshrMisses::total      1177891                       # number of ReadReq MSHR misses (Count)
system.cpu0.icache.ReadReq.mshrMissLatency::switch_cpus0.inst 123261099976                       # number of ReadReq MSHR miss ticks (Tick)
system.cpu0.icache.ReadReq.mshrMissLatency::total 123261099976                       # number of ReadReq MSHR miss ticks (Tick)
system.cpu0.icache.ReadReq.mshrMissRate::switch_cpus0.inst     0.027108                       # mshr miss rate for ReadReq accesses (Ratio)
system.cpu0.icache.ReadReq.mshrMissRate::total     0.027108                       # mshr miss rate for ReadReq accesses (Ratio)
system.cpu0.icache.ReadReq.avgMshrMissLatency::switch_cpus0.inst 104645.591125                       # average ReadReq mshr miss latency ((Tick/Count))
system.cpu0.icache.ReadReq.avgMshrMissLatency::total 104645.591125                       # average ReadReq mshr miss latency ((Tick/Count))
system.cpu0.icache.power_state.pwrStateResidencyTicks::UNDEFINED 11495886262500                       # Cumulative time (in ticks) in various power states (Tick)
system.cpu0.icache.tags.tagsInUse          521.459977                       # Average ticks per tags in use ((Tick/Count))
system.cpu0.icache.tags.totalRefs            43292777                       # Total number of references to valid blocks. (Count)
system.cpu0.icache.tags.sampledRefs           1177891                       # Sample count of references to valid blocks. (Count)
system.cpu0.icache.tags.avgRefs             36.754485                       # Average number of references to valid blocks. ((Count/Count))
system.cpu0.icache.tags.warmupTick       5629265429500                       # The tick when the warmup percentage was hit. (Tick)
system.cpu0.icache.tags.occupancies::switch_cpus0.inst   521.459977                       # Average occupied blocks per tick, per requestor ((Count/Tick))
system.cpu0.icache.tags.avgOccs::switch_cpus0.inst     0.509238                       # Average percentage of cache occupancy ((Ratio/Tick))
system.cpu0.icache.tags.avgOccs::total       0.509238                       # Average percentage of cache occupancy ((Ratio/Tick))
system.cpu0.icache.tags.tagAccesses         174988099                       # Number of tag accesses (Count)
system.cpu0.icache.tags.dataAccesses        174988099                       # Number of data accesses (Count)
system.cpu0.icache.tags.power_state.pwrStateResidencyTicks::UNDEFINED 11495886262500                       # Cumulative time (in ticks) in various power states (Tick)
system.cpu0.l2cache.demandHits::switch_cpus0.mmu.dtb_walker      1532015                       # number of demand (read+write) hits (Count)
system.cpu0.l2cache.demandHits::switch_cpus0.mmu.itb_walker        23474                       # number of demand (read+write) hits (Count)
system.cpu0.l2cache.demandHits::switch_cpus0.inst       242850                       # number of demand (read+write) hits (Count)
system.cpu0.l2cache.demandHits::switch_cpus0.data       395679                       # number of demand (read+write) hits (Count)
system.cpu0.l2cache.demandHits::total         2194018                       # number of demand (read+write) hits (Count)
system.cpu0.l2cache.overallHits::switch_cpus0.mmu.dtb_walker      1532015                       # number of overall hits (Count)
system.cpu0.l2cache.overallHits::switch_cpus0.mmu.itb_walker        23474                       # number of overall hits (Count)
system.cpu0.l2cache.overallHits::switch_cpus0.inst       242850                       # number of overall hits (Count)
system.cpu0.l2cache.overallHits::switch_cpus0.data       395679                       # number of overall hits (Count)
system.cpu0.l2cache.overallHits::total        2194018                       # number of overall hits (Count)
system.cpu0.l2cache.demandMisses::switch_cpus0.mmu.dtb_walker       285917                       # number of demand (read+write) misses (Count)
system.cpu0.l2cache.demandMisses::switch_cpus0.mmu.itb_walker        49433                       # number of demand (read+write) misses (Count)
system.cpu0.l2cache.demandMisses::switch_cpus0.inst       935041                       # number of demand (read+write) misses (Count)
system.cpu0.l2cache.demandMisses::switch_cpus0.data    136804917                       # number of demand (read+write) misses (Count)
system.cpu0.l2cache.demandMisses::total     138075308                       # number of demand (read+write) misses (Count)
system.cpu0.l2cache.overallMisses::switch_cpus0.mmu.dtb_walker       285917                       # number of overall misses (Count)
system.cpu0.l2cache.overallMisses::switch_cpus0.mmu.itb_walker        49433                       # number of overall misses (Count)
system.cpu0.l2cache.overallMisses::switch_cpus0.inst       935041                       # number of overall misses (Count)
system.cpu0.l2cache.overallMisses::switch_cpus0.data    136804917                       # number of overall misses (Count)
system.cpu0.l2cache.overallMisses::total    138075308                       # number of overall misses (Count)
system.cpu0.l2cache.demandMissLatency::switch_cpus0.mmu.dtb_walker  38383359859                       # number of demand (read+write) miss ticks (Tick)
system.cpu0.l2cache.demandMissLatency::switch_cpus0.mmu.itb_walker   6584364478                       # number of demand (read+write) miss ticks (Tick)
system.cpu0.l2cache.demandMissLatency::switch_cpus0.inst 118859356000                       # number of demand (read+write) miss ticks (Tick)
system.cpu0.l2cache.demandMissLatency::switch_cpus0.data 17145913479000                       # number of demand (read+write) miss ticks (Tick)
system.cpu0.l2cache.demandMissLatency::total 17309740559337                       # number of demand (read+write) miss ticks (Tick)
system.cpu0.l2cache.overallMissLatency::switch_cpus0.mmu.dtb_walker  38383359859                       # number of overall miss ticks (Tick)
system.cpu0.l2cache.overallMissLatency::switch_cpus0.mmu.itb_walker   6584364478                       # number of overall miss ticks (Tick)
system.cpu0.l2cache.overallMissLatency::switch_cpus0.inst 118859356000                       # number of overall miss ticks (Tick)
system.cpu0.l2cache.overallMissLatency::switch_cpus0.data 17145913479000                       # number of overall miss ticks (Tick)
system.cpu0.l2cache.overallMissLatency::total 17309740559337                       # number of overall miss ticks (Tick)
system.cpu0.l2cache.demandAccesses::switch_cpus0.mmu.dtb_walker      1817932                       # number of demand (read+write) accesses (Count)
system.cpu0.l2cache.demandAccesses::switch_cpus0.mmu.itb_walker        72907                       # number of demand (read+write) accesses (Count)
system.cpu0.l2cache.demandAccesses::switch_cpus0.inst      1177891                       # number of demand (read+write) accesses (Count)
system.cpu0.l2cache.demandAccesses::switch_cpus0.data    137200596                       # number of demand (read+write) accesses (Count)
system.cpu0.l2cache.demandAccesses::total    140269326                       # number of demand (read+write) accesses (Count)
system.cpu0.l2cache.overallAccesses::switch_cpus0.mmu.dtb_walker      1817932                       # number of overall (read+write) accesses (Count)
system.cpu0.l2cache.overallAccesses::switch_cpus0.mmu.itb_walker        72907                       # number of overall (read+write) accesses (Count)
system.cpu0.l2cache.overallAccesses::switch_cpus0.inst      1177891                       # number of overall (read+write) accesses (Count)
system.cpu0.l2cache.overallAccesses::switch_cpus0.data    137200596                       # number of overall (read+write) accesses (Count)
system.cpu0.l2cache.overallAccesses::total    140269326                       # number of overall (read+write) accesses (Count)
system.cpu0.l2cache.demandMissRate::switch_cpus0.mmu.dtb_walker     0.157276                       # miss rate for demand accesses (Ratio)
system.cpu0.l2cache.demandMissRate::switch_cpus0.mmu.itb_walker     0.678028                       # miss rate for demand accesses (Ratio)
system.cpu0.l2cache.demandMissRate::switch_cpus0.inst     0.793826                       # miss rate for demand accesses (Ratio)
system.cpu0.l2cache.demandMissRate::switch_cpus0.data     0.997116                       # miss rate for demand accesses (Ratio)
system.cpu0.l2cache.demandMissRate::total     0.984359                       # miss rate for demand accesses (Ratio)
system.cpu0.l2cache.overallMissRate::switch_cpus0.mmu.dtb_walker     0.157276                       # miss rate for overall accesses (Ratio)
system.cpu0.l2cache.overallMissRate::switch_cpus0.mmu.itb_walker     0.678028                       # miss rate for overall accesses (Ratio)
system.cpu0.l2cache.overallMissRate::switch_cpus0.inst     0.793826                       # miss rate for overall accesses (Ratio)
system.cpu0.l2cache.overallMissRate::switch_cpus0.data     0.997116                       # miss rate for overall accesses (Ratio)
system.cpu0.l2cache.overallMissRate::total     0.984359                       # miss rate for overall accesses (Ratio)
system.cpu0.l2cache.demandAvgMissLatency::switch_cpus0.mmu.dtb_walker 134246.511607                       # average overall miss latency in ticks ((Tick/Count))
system.cpu0.l2cache.demandAvgMissLatency::switch_cpus0.mmu.itb_walker 133197.752068                       # average overall miss latency in ticks ((Tick/Count))
system.cpu0.l2cache.demandAvgMissLatency::switch_cpus0.inst 127116.731780                       # average overall miss latency in ticks ((Tick/Count))
system.cpu0.l2cache.demandAvgMissLatency::switch_cpus0.data 125331.120072                       # average overall miss latency in ticks ((Tick/Count))
system.cpu0.l2cache.demandAvgMissLatency::total 125364.489930                       # average overall miss latency in ticks ((Tick/Count))
system.cpu0.l2cache.overallAvgMissLatency::switch_cpus0.mmu.dtb_walker 134246.511607                       # average overall miss latency ((Tick/Count))
system.cpu0.l2cache.overallAvgMissLatency::switch_cpus0.mmu.itb_walker 133197.752068                       # average overall miss latency ((Tick/Count))
system.cpu0.l2cache.overallAvgMissLatency::switch_cpus0.inst 127116.731780                       # average overall miss latency ((Tick/Count))
system.cpu0.l2cache.overallAvgMissLatency::switch_cpus0.data 125331.120072                       # average overall miss latency ((Tick/Count))
system.cpu0.l2cache.overallAvgMissLatency::total 125364.489930                       # average overall miss latency ((Tick/Count))
system.cpu0.l2cache.blockedCycles::no_mshrs            0                       # number of cycles access was blocked (Cycle)
system.cpu0.l2cache.blockedCycles::no_targets            0                       # number of cycles access was blocked (Cycle)
system.cpu0.l2cache.blockedCauses::no_mshrs            0                       # number of times access was blocked (Count)
system.cpu0.l2cache.blockedCauses::no_targets            0                       # number of times access was blocked (Count)
system.cpu0.l2cache.avgBlocked::no_mshrs          nan                       # average number of cycles each access was blocked ((Cycle/Count))
system.cpu0.l2cache.avgBlocked::no_targets          nan                       # average number of cycles each access was blocked ((Cycle/Count))
system.cpu0.l2cache.writebacks::writebacks     33289361                       # number of writebacks (Count)
system.cpu0.l2cache.writebacks::total        33289361                       # number of writebacks (Count)
system.cpu0.l2cache.demandMshrHits::switch_cpus0.mmu.dtb_walker            2                       # number of demand (read+write) MSHR hits (Count)
system.cpu0.l2cache.demandMshrHits::switch_cpus0.mmu.itb_walker           24                       # number of demand (read+write) MSHR hits (Count)
system.cpu0.l2cache.demandMshrHits::switch_cpus0.data            1                       # number of demand (read+write) MSHR hits (Count)
system.cpu0.l2cache.demandMshrHits::total           27                       # number of demand (read+write) MSHR hits (Count)
system.cpu0.l2cache.overallMshrHits::switch_cpus0.mmu.dtb_walker            2                       # number of overall MSHR hits (Count)
system.cpu0.l2cache.overallMshrHits::switch_cpus0.mmu.itb_walker           24                       # number of overall MSHR hits (Count)
system.cpu0.l2cache.overallMshrHits::switch_cpus0.data            1                       # number of overall MSHR hits (Count)
system.cpu0.l2cache.overallMshrHits::total           27                       # number of overall MSHR hits (Count)
system.cpu0.l2cache.demandMshrMisses::switch_cpus0.mmu.dtb_walker       285915                       # number of demand (read+write) MSHR misses (Count)
system.cpu0.l2cache.demandMshrMisses::switch_cpus0.mmu.itb_walker        49409                       # number of demand (read+write) MSHR misses (Count)
system.cpu0.l2cache.demandMshrMisses::switch_cpus0.inst       935041                       # number of demand (read+write) MSHR misses (Count)
system.cpu0.l2cache.demandMshrMisses::switch_cpus0.data    136804916                       # number of demand (read+write) MSHR misses (Count)
system.cpu0.l2cache.demandMshrMisses::total    138075281                       # number of demand (read+write) MSHR misses (Count)
system.cpu0.l2cache.overallMshrMisses::switch_cpus0.mmu.dtb_walker       285915                       # number of overall MSHR misses (Count)
system.cpu0.l2cache.overallMshrMisses::switch_cpus0.mmu.itb_walker        49409                       # number of overall MSHR misses (Count)
system.cpu0.l2cache.overallMshrMisses::switch_cpus0.inst       935041                       # number of overall MSHR misses (Count)
system.cpu0.l2cache.overallMshrMisses::switch_cpus0.data    136804916                       # number of overall MSHR misses (Count)
system.cpu0.l2cache.overallMshrMisses::total    138075281                       # number of overall MSHR misses (Count)
system.cpu0.l2cache.overallMshrUncacheable::switch_cpus0.data        58437                       # number of overall MSHR uncacheable misses (Count)
system.cpu0.l2cache.overallMshrUncacheable::total        58437                       # number of overall MSHR uncacheable misses (Count)
system.cpu0.l2cache.demandMshrMissLatency::switch_cpus0.mmu.dtb_walker  35523967860                       # number of demand (read+write) MSHR miss ticks (Tick)
system.cpu0.l2cache.demandMshrMissLatency::switch_cpus0.mmu.itb_walker   6086776999                       # number of demand (read+write) MSHR miss ticks (Tick)
system.cpu0.l2cache.demandMshrMissLatency::switch_cpus0.inst 109508946000                       # number of demand (read+write) MSHR miss ticks (Tick)
system.cpu0.l2cache.demandMshrMissLatency::switch_cpus0.data 15777864038500                       # number of demand (read+write) MSHR miss ticks (Tick)
system.cpu0.l2cache.demandMshrMissLatency::total 15928983729359                       # number of demand (read+write) MSHR miss ticks (Tick)
system.cpu0.l2cache.overallMshrMissLatency::switch_cpus0.mmu.dtb_walker  35523967860                       # number of overall MSHR miss ticks (Tick)
system.cpu0.l2cache.overallMshrMissLatency::switch_cpus0.mmu.itb_walker   6086776999                       # number of overall MSHR miss ticks (Tick)
system.cpu0.l2cache.overallMshrMissLatency::switch_cpus0.inst 109508946000                       # number of overall MSHR miss ticks (Tick)
system.cpu0.l2cache.overallMshrMissLatency::switch_cpus0.data 15777864038500                       # number of overall MSHR miss ticks (Tick)
system.cpu0.l2cache.overallMshrMissLatency::total 15928983729359                       # number of overall MSHR miss ticks (Tick)
system.cpu0.l2cache.overallMshrUncacheableLatency::switch_cpus0.data   2513949500                       # number of overall MSHR uncacheable ticks (Tick)
system.cpu0.l2cache.overallMshrUncacheableLatency::total   2513949500                       # number of overall MSHR uncacheable ticks (Tick)
system.cpu0.l2cache.demandMshrMissRate::switch_cpus0.mmu.dtb_walker     0.157275                       # mshr miss ratio for demand accesses (Ratio)
system.cpu0.l2cache.demandMshrMissRate::switch_cpus0.mmu.itb_walker     0.677699                       # mshr miss ratio for demand accesses (Ratio)
system.cpu0.l2cache.demandMshrMissRate::switch_cpus0.inst     0.793826                       # mshr miss ratio for demand accesses (Ratio)
system.cpu0.l2cache.demandMshrMissRate::switch_cpus0.data     0.997116                       # mshr miss ratio for demand accesses (Ratio)
system.cpu0.l2cache.demandMshrMissRate::total     0.984358                       # mshr miss ratio for demand accesses (Ratio)
system.cpu0.l2cache.overallMshrMissRate::switch_cpus0.mmu.dtb_walker     0.157275                       # mshr miss ratio for overall accesses (Ratio)
system.cpu0.l2cache.overallMshrMissRate::switch_cpus0.mmu.itb_walker     0.677699                       # mshr miss ratio for overall accesses (Ratio)
system.cpu0.l2cache.overallMshrMissRate::switch_cpus0.inst     0.793826                       # mshr miss ratio for overall accesses (Ratio)
system.cpu0.l2cache.overallMshrMissRate::switch_cpus0.data     0.997116                       # mshr miss ratio for overall accesses (Ratio)
system.cpu0.l2cache.overallMshrMissRate::total     0.984358                       # mshr miss ratio for overall accesses (Ratio)
system.cpu0.l2cache.demandAvgMshrMissLatency::switch_cpus0.mmu.dtb_walker 124246.604270                       # average overall mshr miss latency ((Tick/Count))
system.cpu0.l2cache.demandAvgMshrMissLatency::switch_cpus0.mmu.itb_walker 123191.665466                       # average overall mshr miss latency ((Tick/Count))
system.cpu0.l2cache.demandAvgMshrMissLatency::switch_cpus0.inst 117116.731780                       # average overall mshr miss latency ((Tick/Count))
system.cpu0.l2cache.demandAvgMshrMissLatency::switch_cpus0.data 115331.118938                       # average overall mshr miss latency ((Tick/Count))
system.cpu0.l2cache.demandAvgMshrMissLatency::total 115364.485330                       # average overall mshr miss latency ((Tick/Count))
system.cpu0.l2cache.overallAvgMshrMissLatency::switch_cpus0.mmu.dtb_walker 124246.604270                       # average overall mshr miss latency ((Tick/Count))
system.cpu0.l2cache.overallAvgMshrMissLatency::switch_cpus0.mmu.itb_walker 123191.665466                       # average overall mshr miss latency ((Tick/Count))
system.cpu0.l2cache.overallAvgMshrMissLatency::switch_cpus0.inst 117116.731780                       # average overall mshr miss latency ((Tick/Count))
system.cpu0.l2cache.overallAvgMshrMissLatency::switch_cpus0.data 115331.118938                       # average overall mshr miss latency ((Tick/Count))
system.cpu0.l2cache.overallAvgMshrMissLatency::total 115364.485330                       # average overall mshr miss latency ((Tick/Count))
system.cpu0.l2cache.overallAvgMshrUncacheableLatency::switch_cpus0.data 43019.824769                       # average overall mshr uncacheable latency ((Tick/Count))
system.cpu0.l2cache.overallAvgMshrUncacheableLatency::total 43019.824769                       # average overall mshr uncacheable latency ((Tick/Count))
system.cpu0.l2cache.replacements            139410194                       # number of replacements (Count)
system.cpu0.l2cache.CleanEvict.mshrMisses::writebacks          257                       # number of CleanEvict MSHR misses (Count)
system.cpu0.l2cache.CleanEvict.mshrMisses::total          257                       # number of CleanEvict MSHR misses (Count)
system.cpu0.l2cache.CleanEvict.mshrMissRate::writebacks          inf                       # mshr miss rate for CleanEvict accesses (Ratio)
system.cpu0.l2cache.CleanEvict.mshrMissRate::total          inf                       # mshr miss rate for CleanEvict accesses (Ratio)
system.cpu0.l2cache.InvalidateReq.hits::switch_cpus0.data         4110                       # number of InvalidateReq hits (Count)
system.cpu0.l2cache.InvalidateReq.hits::total         4110                       # number of InvalidateReq hits (Count)
system.cpu0.l2cache.InvalidateReq.misses::switch_cpus0.data       107305                       # number of InvalidateReq misses (Count)
system.cpu0.l2cache.InvalidateReq.misses::total       107305                       # number of InvalidateReq misses (Count)
system.cpu0.l2cache.InvalidateReq.missLatency::switch_cpus0.data        86000                       # number of InvalidateReq miss ticks (Tick)
system.cpu0.l2cache.InvalidateReq.missLatency::total        86000                       # number of InvalidateReq miss ticks (Tick)
system.cpu0.l2cache.InvalidateReq.accesses::switch_cpus0.data       111415                       # number of InvalidateReq accesses(hits+misses) (Count)
system.cpu0.l2cache.InvalidateReq.accesses::total       111415                       # number of InvalidateReq accesses(hits+misses) (Count)
system.cpu0.l2cache.InvalidateReq.missRate::switch_cpus0.data     0.963111                       # miss rate for InvalidateReq accesses (Ratio)
system.cpu0.l2cache.InvalidateReq.missRate::total     0.963111                       # miss rate for InvalidateReq accesses (Ratio)
system.cpu0.l2cache.InvalidateReq.avgMissLatency::switch_cpus0.data     0.801454                       # average InvalidateReq miss latency ((Tick/Count))
system.cpu0.l2cache.InvalidateReq.avgMissLatency::total     0.801454                       # average InvalidateReq miss latency ((Tick/Count))
system.cpu0.l2cache.InvalidateReq.mshrMisses::switch_cpus0.data       107305                       # number of InvalidateReq MSHR misses (Count)
system.cpu0.l2cache.InvalidateReq.mshrMisses::total       107305                       # number of InvalidateReq MSHR misses (Count)
system.cpu0.l2cache.InvalidateReq.mshrMissLatency::switch_cpus0.data   4825584500                       # number of InvalidateReq MSHR miss ticks (Tick)
system.cpu0.l2cache.InvalidateReq.mshrMissLatency::total   4825584500                       # number of InvalidateReq MSHR miss ticks (Tick)
system.cpu0.l2cache.InvalidateReq.mshrMissRate::switch_cpus0.data     0.963111                       # mshr miss rate for InvalidateReq accesses (Ratio)
system.cpu0.l2cache.InvalidateReq.mshrMissRate::total     0.963111                       # mshr miss rate for InvalidateReq accesses (Ratio)
system.cpu0.l2cache.InvalidateReq.avgMshrMissLatency::switch_cpus0.data 44970.732957                       # average InvalidateReq mshr miss latency ((Tick/Count))
system.cpu0.l2cache.InvalidateReq.avgMshrMissLatency::total 44970.732957                       # average InvalidateReq mshr miss latency ((Tick/Count))
system.cpu0.l2cache.ReadCleanReq.hits::switch_cpus0.inst       242850                       # number of ReadCleanReq hits (Count)
system.cpu0.l2cache.ReadCleanReq.hits::total       242850                       # number of ReadCleanReq hits (Count)
system.cpu0.l2cache.ReadCleanReq.misses::switch_cpus0.inst       935041                       # number of ReadCleanReq misses (Count)
system.cpu0.l2cache.ReadCleanReq.misses::total       935041                       # number of ReadCleanReq misses (Count)
system.cpu0.l2cache.ReadCleanReq.missLatency::switch_cpus0.inst 118859356000                       # number of ReadCleanReq miss ticks (Tick)
system.cpu0.l2cache.ReadCleanReq.missLatency::total 118859356000                       # number of ReadCleanReq miss ticks (Tick)
system.cpu0.l2cache.ReadCleanReq.accesses::switch_cpus0.inst      1177891                       # number of ReadCleanReq accesses(hits+misses) (Count)
system.cpu0.l2cache.ReadCleanReq.accesses::total      1177891                       # number of ReadCleanReq accesses(hits+misses) (Count)
system.cpu0.l2cache.ReadCleanReq.missRate::switch_cpus0.inst     0.793826                       # miss rate for ReadCleanReq accesses (Ratio)
system.cpu0.l2cache.ReadCleanReq.missRate::total     0.793826                       # miss rate for ReadCleanReq accesses (Ratio)
system.cpu0.l2cache.ReadCleanReq.avgMissLatency::switch_cpus0.inst 127116.731780                       # average ReadCleanReq miss latency ((Tick/Count))
system.cpu0.l2cache.ReadCleanReq.avgMissLatency::total 127116.731780                       # average ReadCleanReq miss latency ((Tick/Count))
system.cpu0.l2cache.ReadCleanReq.mshrMisses::switch_cpus0.inst       935041                       # number of ReadCleanReq MSHR misses (Count)
system.cpu0.l2cache.ReadCleanReq.mshrMisses::total       935041                       # number of ReadCleanReq MSHR misses (Count)
system.cpu0.l2cache.ReadCleanReq.mshrMissLatency::switch_cpus0.inst 109508946000                       # number of ReadCleanReq MSHR miss ticks (Tick)
system.cpu0.l2cache.ReadCleanReq.mshrMissLatency::total 109508946000                       # number of ReadCleanReq MSHR miss ticks (Tick)
system.cpu0.l2cache.ReadCleanReq.mshrMissRate::switch_cpus0.inst     0.793826                       # mshr miss rate for ReadCleanReq accesses (Ratio)
system.cpu0.l2cache.ReadCleanReq.mshrMissRate::total     0.793826                       # mshr miss rate for ReadCleanReq accesses (Ratio)
system.cpu0.l2cache.ReadCleanReq.avgMshrMissLatency::switch_cpus0.inst 117116.731780                       # average ReadCleanReq mshr miss latency ((Tick/Count))
system.cpu0.l2cache.ReadCleanReq.avgMshrMissLatency::total 117116.731780                       # average ReadCleanReq mshr miss latency ((Tick/Count))
system.cpu0.l2cache.ReadExReq.hits::switch_cpus0.data       192210                       # number of ReadExReq hits (Count)
system.cpu0.l2cache.ReadExReq.hits::total       192210                       # number of ReadExReq hits (Count)
system.cpu0.l2cache.ReadExReq.misses::switch_cpus0.data     32805248                       # number of ReadExReq misses (Count)
system.cpu0.l2cache.ReadExReq.misses::total     32805248                       # number of ReadExReq misses (Count)
system.cpu0.l2cache.ReadExReq.missLatency::switch_cpus0.data 4416114434000                       # number of ReadExReq miss ticks (Tick)
system.cpu0.l2cache.ReadExReq.missLatency::total 4416114434000                       # number of ReadExReq miss ticks (Tick)
system.cpu0.l2cache.ReadExReq.accesses::switch_cpus0.data     32997458                       # number of ReadExReq accesses(hits+misses) (Count)
system.cpu0.l2cache.ReadExReq.accesses::total     32997458                       # number of ReadExReq accesses(hits+misses) (Count)
system.cpu0.l2cache.ReadExReq.missRate::switch_cpus0.data     0.994175                       # miss rate for ReadExReq accesses (Ratio)
system.cpu0.l2cache.ReadExReq.missRate::total     0.994175                       # miss rate for ReadExReq accesses (Ratio)
system.cpu0.l2cache.ReadExReq.avgMissLatency::switch_cpus0.data 134616.096607                       # average ReadExReq miss latency ((Tick/Count))
system.cpu0.l2cache.ReadExReq.avgMissLatency::total 134616.096607                       # average ReadExReq miss latency ((Tick/Count))
system.cpu0.l2cache.ReadExReq.mshrMisses::switch_cpus0.data     32805248                       # number of ReadExReq MSHR misses (Count)
system.cpu0.l2cache.ReadExReq.mshrMisses::total     32805248                       # number of ReadExReq MSHR misses (Count)
system.cpu0.l2cache.ReadExReq.mshrMissLatency::switch_cpus0.data 4088061954000                       # number of ReadExReq MSHR miss ticks (Tick)
system.cpu0.l2cache.ReadExReq.mshrMissLatency::total 4088061954000                       # number of ReadExReq MSHR miss ticks (Tick)
system.cpu0.l2cache.ReadExReq.mshrMissRate::switch_cpus0.data     0.994175                       # mshr miss rate for ReadExReq accesses (Ratio)
system.cpu0.l2cache.ReadExReq.mshrMissRate::total     0.994175                       # mshr miss rate for ReadExReq accesses (Ratio)
system.cpu0.l2cache.ReadExReq.avgMshrMissLatency::switch_cpus0.data 124616.096607                       # average ReadExReq mshr miss latency ((Tick/Count))
system.cpu0.l2cache.ReadExReq.avgMshrMissLatency::total 124616.096607                       # average ReadExReq mshr miss latency ((Tick/Count))
system.cpu0.l2cache.ReadReq.hits::switch_cpus0.mmu.dtb_walker      1532015                       # number of ReadReq hits (Count)
system.cpu0.l2cache.ReadReq.hits::switch_cpus0.mmu.itb_walker        23474                       # number of ReadReq hits (Count)
system.cpu0.l2cache.ReadReq.hits::total       1555489                       # number of ReadReq hits (Count)
system.cpu0.l2cache.ReadReq.misses::switch_cpus0.mmu.dtb_walker       285917                       # number of ReadReq misses (Count)
system.cpu0.l2cache.ReadReq.misses::switch_cpus0.mmu.itb_walker        49433                       # number of ReadReq misses (Count)
system.cpu0.l2cache.ReadReq.misses::total       335350                       # number of ReadReq misses (Count)
system.cpu0.l2cache.ReadReq.missLatency::switch_cpus0.mmu.dtb_walker  38383359859                       # number of ReadReq miss ticks (Tick)
system.cpu0.l2cache.ReadReq.missLatency::switch_cpus0.mmu.itb_walker   6584364478                       # number of ReadReq miss ticks (Tick)
system.cpu0.l2cache.ReadReq.missLatency::total  44967724337                       # number of ReadReq miss ticks (Tick)
system.cpu0.l2cache.ReadReq.accesses::switch_cpus0.mmu.dtb_walker      1817932                       # number of ReadReq accesses(hits+misses) (Count)
system.cpu0.l2cache.ReadReq.accesses::switch_cpus0.mmu.itb_walker        72907                       # number of ReadReq accesses(hits+misses) (Count)
system.cpu0.l2cache.ReadReq.accesses::total      1890839                       # number of ReadReq accesses(hits+misses) (Count)
system.cpu0.l2cache.ReadReq.missRate::switch_cpus0.mmu.dtb_walker     0.157276                       # miss rate for ReadReq accesses (Ratio)
system.cpu0.l2cache.ReadReq.missRate::switch_cpus0.mmu.itb_walker     0.678028                       # miss rate for ReadReq accesses (Ratio)
system.cpu0.l2cache.ReadReq.missRate::total     0.177355                       # miss rate for ReadReq accesses (Ratio)
system.cpu0.l2cache.ReadReq.avgMissLatency::switch_cpus0.mmu.dtb_walker 134246.511607                       # average ReadReq miss latency ((Tick/Count))
system.cpu0.l2cache.ReadReq.avgMissLatency::switch_cpus0.mmu.itb_walker 133197.752068                       # average ReadReq miss latency ((Tick/Count))
system.cpu0.l2cache.ReadReq.avgMissLatency::total 134091.916914                       # average ReadReq miss latency ((Tick/Count))
system.cpu0.l2cache.ReadReq.mshrHits::switch_cpus0.mmu.dtb_walker            2                       # number of ReadReq MSHR hits (Count)
system.cpu0.l2cache.ReadReq.mshrHits::switch_cpus0.mmu.itb_walker           24                       # number of ReadReq MSHR hits (Count)
system.cpu0.l2cache.ReadReq.mshrHits::total           26                       # number of ReadReq MSHR hits (Count)
system.cpu0.l2cache.ReadReq.mshrMisses::switch_cpus0.mmu.dtb_walker       285915                       # number of ReadReq MSHR misses (Count)
system.cpu0.l2cache.ReadReq.mshrMisses::switch_cpus0.mmu.itb_walker        49409                       # number of ReadReq MSHR misses (Count)
system.cpu0.l2cache.ReadReq.mshrMisses::total       335324                       # number of ReadReq MSHR misses (Count)
system.cpu0.l2cache.ReadReq.mshrUncacheable::switch_cpus0.data        50938                       # number of ReadReq MSHR uncacheable (Count)
system.cpu0.l2cache.ReadReq.mshrUncacheable::total        50938                       # number of ReadReq MSHR uncacheable (Count)
system.cpu0.l2cache.ReadReq.mshrMissLatency::switch_cpus0.mmu.dtb_walker  35523967860                       # number of ReadReq MSHR miss ticks (Tick)
system.cpu0.l2cache.ReadReq.mshrMissLatency::switch_cpus0.mmu.itb_walker   6086776999                       # number of ReadReq MSHR miss ticks (Tick)
system.cpu0.l2cache.ReadReq.mshrMissLatency::total  41610744859                       # number of ReadReq MSHR miss ticks (Tick)
system.cpu0.l2cache.ReadReq.mshrUncacheableLatency::switch_cpus0.data   2513949500                       # number of ReadReq MSHR uncacheable ticks (Tick)
system.cpu0.l2cache.ReadReq.mshrUncacheableLatency::total   2513949500                       # number of ReadReq MSHR uncacheable ticks (Tick)
system.cpu0.l2cache.ReadReq.mshrMissRate::switch_cpus0.mmu.dtb_walker     0.157275                       # mshr miss rate for ReadReq accesses (Ratio)
system.cpu0.l2cache.ReadReq.mshrMissRate::switch_cpus0.mmu.itb_walker     0.677699                       # mshr miss rate for ReadReq accesses (Ratio)
system.cpu0.l2cache.ReadReq.mshrMissRate::total     0.177341                       # mshr miss rate for ReadReq accesses (Ratio)
system.cpu0.l2cache.ReadReq.avgMshrMissLatency::switch_cpus0.mmu.dtb_walker 124246.604270                       # average ReadReq mshr miss latency ((Tick/Count))
system.cpu0.l2cache.ReadReq.avgMshrMissLatency::switch_cpus0.mmu.itb_walker 123191.665466                       # average ReadReq mshr miss latency ((Tick/Count))
system.cpu0.l2cache.ReadReq.avgMshrMissLatency::total 124091.162157                       # average ReadReq mshr miss latency ((Tick/Count))
system.cpu0.l2cache.ReadReq.avgMshrUncacheableLatency::switch_cpus0.data 49353.125368                       # average ReadReq mshr uncacheable latency ((Tick/Count))
system.cpu0.l2cache.ReadReq.avgMshrUncacheableLatency::total 49353.125368                       # average ReadReq mshr uncacheable latency ((Tick/Count))
system.cpu0.l2cache.ReadSharedReq.hits::switch_cpus0.data       203469                       # number of ReadSharedReq hits (Count)
system.cpu0.l2cache.ReadSharedReq.hits::total       203469                       # number of ReadSharedReq hits (Count)
system.cpu0.l2cache.ReadSharedReq.misses::switch_cpus0.data    103999669                       # number of ReadSharedReq misses (Count)
system.cpu0.l2cache.ReadSharedReq.misses::total    103999669                       # number of ReadSharedReq misses (Count)
system.cpu0.l2cache.ReadSharedReq.missLatency::switch_cpus0.data 12729799045000                       # number of ReadSharedReq miss ticks (Tick)
system.cpu0.l2cache.ReadSharedReq.missLatency::total 12729799045000                       # number of ReadSharedReq miss ticks (Tick)
system.cpu0.l2cache.ReadSharedReq.accesses::switch_cpus0.data    104203138                       # number of ReadSharedReq accesses(hits+misses) (Count)
system.cpu0.l2cache.ReadSharedReq.accesses::total    104203138                       # number of ReadSharedReq accesses(hits+misses) (Count)
system.cpu0.l2cache.ReadSharedReq.missRate::switch_cpus0.data     0.998047                       # miss rate for ReadSharedReq accesses (Ratio)
system.cpu0.l2cache.ReadSharedReq.missRate::total     0.998047                       # miss rate for ReadSharedReq accesses (Ratio)
system.cpu0.l2cache.ReadSharedReq.avgMissLatency::switch_cpus0.data 122402.303463                       # average ReadSharedReq miss latency ((Tick/Count))
system.cpu0.l2cache.ReadSharedReq.avgMissLatency::total 122402.303463                       # average ReadSharedReq miss latency ((Tick/Count))
system.cpu0.l2cache.ReadSharedReq.mshrHits::switch_cpus0.data            1                       # number of ReadSharedReq MSHR hits (Count)
system.cpu0.l2cache.ReadSharedReq.mshrHits::total            1                       # number of ReadSharedReq MSHR hits (Count)
system.cpu0.l2cache.ReadSharedReq.mshrMisses::switch_cpus0.data    103999668                       # number of ReadSharedReq MSHR misses (Count)
system.cpu0.l2cache.ReadSharedReq.mshrMisses::total    103999668                       # number of ReadSharedReq MSHR misses (Count)
system.cpu0.l2cache.ReadSharedReq.mshrMissLatency::switch_cpus0.data 11689802084500                       # number of ReadSharedReq MSHR miss ticks (Tick)
system.cpu0.l2cache.ReadSharedReq.mshrMissLatency::total 11689802084500                       # number of ReadSharedReq MSHR miss ticks (Tick)
system.cpu0.l2cache.ReadSharedReq.mshrMissRate::switch_cpus0.data     0.998047                       # mshr miss rate for ReadSharedReq accesses (Ratio)
system.cpu0.l2cache.ReadSharedReq.mshrMissRate::total     0.998047                       # mshr miss rate for ReadSharedReq accesses (Ratio)
system.cpu0.l2cache.ReadSharedReq.avgMshrMissLatency::switch_cpus0.data 112402.301943                       # average ReadSharedReq mshr miss latency ((Tick/Count))
system.cpu0.l2cache.ReadSharedReq.avgMshrMissLatency::total 112402.301943                       # average ReadSharedReq mshr miss latency ((Tick/Count))
system.cpu0.l2cache.UpgradeReq.hits::switch_cpus0.data        14430                       # number of UpgradeReq hits (Count)
system.cpu0.l2cache.UpgradeReq.hits::total        14430                       # number of UpgradeReq hits (Count)
system.cpu0.l2cache.UpgradeReq.misses::switch_cpus0.data         2237                       # number of UpgradeReq misses (Count)
system.cpu0.l2cache.UpgradeReq.misses::total         2237                       # number of UpgradeReq misses (Count)
system.cpu0.l2cache.UpgradeReq.missLatency::switch_cpus0.data     92832497                       # number of UpgradeReq miss ticks (Tick)
system.cpu0.l2cache.UpgradeReq.missLatency::total     92832497                       # number of UpgradeReq miss ticks (Tick)
system.cpu0.l2cache.UpgradeReq.accesses::switch_cpus0.data        16667                       # number of UpgradeReq accesses(hits+misses) (Count)
system.cpu0.l2cache.UpgradeReq.accesses::total        16667                       # number of UpgradeReq accesses(hits+misses) (Count)
system.cpu0.l2cache.UpgradeReq.missRate::switch_cpus0.data     0.134217                       # miss rate for UpgradeReq accesses (Ratio)
system.cpu0.l2cache.UpgradeReq.missRate::total     0.134217                       # miss rate for UpgradeReq accesses (Ratio)
system.cpu0.l2cache.UpgradeReq.avgMissLatency::switch_cpus0.data 41498.657577                       # average UpgradeReq miss latency ((Tick/Count))
system.cpu0.l2cache.UpgradeReq.avgMissLatency::total 41498.657577                       # average UpgradeReq miss latency ((Tick/Count))
system.cpu0.l2cache.UpgradeReq.mshrMisses::switch_cpus0.data         2237                       # number of UpgradeReq MSHR misses (Count)
system.cpu0.l2cache.UpgradeReq.mshrMisses::total         2237                       # number of UpgradeReq MSHR misses (Count)
system.cpu0.l2cache.UpgradeReq.mshrMissLatency::switch_cpus0.data     70773497                       # number of UpgradeReq MSHR miss ticks (Tick)
system.cpu0.l2cache.UpgradeReq.mshrMissLatency::total     70773497                       # number of UpgradeReq MSHR miss ticks (Tick)
system.cpu0.l2cache.UpgradeReq.mshrMissRate::switch_cpus0.data     0.134217                       # mshr miss rate for UpgradeReq accesses (Ratio)
system.cpu0.l2cache.UpgradeReq.mshrMissRate::total     0.134217                       # mshr miss rate for UpgradeReq accesses (Ratio)
system.cpu0.l2cache.UpgradeReq.avgMshrMissLatency::switch_cpus0.data 31637.683058                       # average UpgradeReq mshr miss latency ((Tick/Count))
system.cpu0.l2cache.UpgradeReq.avgMshrMissLatency::total 31637.683058                       # average UpgradeReq mshr miss latency ((Tick/Count))
system.cpu0.l2cache.WriteReq.mshrUncacheable::switch_cpus0.data         7499                       # number of WriteReq MSHR uncacheable (Count)
system.cpu0.l2cache.WriteReq.mshrUncacheable::total         7499                       # number of WriteReq MSHR uncacheable (Count)
system.cpu0.l2cache.WritebackClean.hits::writebacks      1176861                       # number of WritebackClean hits (Count)
[...]
system.switch_cpus1.mmu.itb_walker.requestOrigin::total           17                       # Table walker requests started/completed, data/inst (Count)
system.switch_cpus1.mmu.itb_walker.power_state.pwrStateResidencyTicks::UNDEFINED 11495886262500                       # Cumulative time (in ticks) in various power states (Tick)
system.switch_cpus1.mmu.l2_shared.partialHits     14174369                       # partial translation hits (Count)
system.switch_cpus1.mmu.l2_shared.instHits            2                       # Inst hits (Count)
system.switch_cpus1.mmu.l2_shared.instMisses            9                       # Inst misses (Count)
system.switch_cpus1.mmu.l2_shared.readHits      4683459                       # Read hits (Count)
system.switch_cpus1.mmu.l2_shared.readMisses        62440                       # Read misses (Count)
system.switch_cpus1.mmu.l2_shared.writeHits      9540463                       # Write hits (Count)
system.switch_cpus1.mmu.l2_shared.writeMisses       108472                       # Write misses (Count)
system.switch_cpus1.mmu.l2_shared.inserts      1654103                       # Number of times an entry is inserted into the TLB (Count)
system.switch_cpus1.mmu.l2_shared.flushTlb            2                       # Number of times complete TLB was flushed (Count)
system.switch_cpus1.mmu.l2_shared.flushTlbMva            0                       # Number of times TLB was flushed by MVA (Count)
system.switch_cpus1.mmu.l2_shared.flushTlbMvaAsid          120                       # Number of times TLB was flushed by MVA & ASID (Count)
system.switch_cpus1.mmu.l2_shared.flushTlbAsid            5                       # Number of times TLB was flushed by ASID (Count)
system.switch_cpus1.mmu.l2_shared.flushedEntries         1280                       # Number of entries that have been flushed from TLB (Count)
system.switch_cpus1.mmu.l2_shared.readAccesses      4745899                       # Read accesses (Count)
system.switch_cpus1.mmu.l2_shared.writeAccesses      9648935                       # Write accesses (Count)
system.switch_cpus1.mmu.l2_shared.instAccesses           11                       # Inst accesses (Count)
system.switch_cpus1.mmu.l2_shared.hits       14223924                       # Total TLB (inst and data) hits (Count)
system.switch_cpus1.mmu.l2_shared.misses       170921                       # Total TLB (inst and data) misses (Count)
system.switch_cpus1.mmu.l2_shared.accesses     14394845                       # Total TLB (inst and data) accesses (Count)
system.switch_cpus1.mmu.stage2_dtb.readHits            0                       # Read hits (Count)
system.switch_cpus1.mmu.stage2_dtb.readMisses            0                       # Read misses (Count)
system.switch_cpus1.mmu.stage2_dtb.writeHits            0                       # Write hits (Count)
system.switch_cpus1.mmu.stage2_dtb.writeMisses            0                       # Write misses (Count)
system.switch_cpus1.mmu.stage2_dtb.inserts            0                       # Number of times an entry is inserted into the TLB (Count)
system.switch_cpus1.mmu.stage2_dtb.flushTlb            2                       # Number of times complete TLB was flushed (Count)
system.switch_cpus1.mmu.stage2_dtb.flushTlbMva            0                       # Number of times TLB was flushed by MVA (Count)
system.switch_cpus1.mmu.stage2_dtb.flushTlbMvaAsid            0                       # Number of times TLB was flushed by MVA & ASID (Count)
system.switch_cpus1.mmu.stage2_dtb.flushTlbAsid            0                       # Number of times TLB was flushed by ASID (Count)
system.switch_cpus1.mmu.stage2_dtb.flushedEntries            0                       # Number of entries that have been flushed from TLB (Count)
system.switch_cpus1.mmu.stage2_dtb.readAccesses            0                       # Read accesses (Count)
system.switch_cpus1.mmu.stage2_dtb.writeAccesses            0                       # Write accesses (Count)
system.switch_cpus1.mmu.stage2_dtb.hits             0                       # Total TLB (inst and data) hits (Count)
system.switch_cpus1.mmu.stage2_dtb.misses            0                       # Total TLB (inst and data) misses (Count)
system.switch_cpus1.mmu.stage2_dtb.accesses            0                       # Total TLB (inst and data) accesses (Count)
system.switch_cpus1.mmu.stage2_dtb_walker.walks            0                       # Table walker walks requested (Count)
system.switch_cpus1.mmu.stage2_dtb_walker.requestOrigin_Requested::Data            0                       # Table walker requests started/completed, data/inst (Count)
system.switch_cpus1.mmu.stage2_dtb_walker.requestOrigin_Requested::Inst            0                       # Table walker requests started/completed, data/inst (Count)
system.switch_cpus1.mmu.stage2_dtb_walker.requestOrigin_Requested::total            0                       # Table walker requests started/completed, data/inst (Count)
system.switch_cpus1.mmu.stage2_dtb_walker.requestOrigin_Completed::Data            0                       # Table walker requests started/completed, data/inst (Count)
system.switch_cpus1.mmu.stage2_dtb_walker.requestOrigin_Completed::Inst            0                       # Table walker requests started/completed, data/inst (Count)
system.switch_cpus1.mmu.stage2_dtb_walker.requestOrigin_Completed::total            0                       # Table walker requests started/completed, data/inst (Count)
system.switch_cpus1.mmu.stage2_dtb_walker.requestOrigin::total            0                       # Table walker requests started/completed, data/inst (Count)
system.switch_cpus1.mmu.stage2_dtb_walker.power_state.pwrStateResidencyTicks::UNDEFINED 11495886262500                       # Cumulative time (in ticks) in various power states (Tick)
system.switch_cpus1.mmu.stage2_itb.instHits            0                       # Inst hits (Count)
system.switch_cpus1.mmu.stage2_itb.instMisses            0                       # Inst misses (Count)
system.switch_cpus1.mmu.stage2_itb.inserts            0                       # Number of times an entry is inserted into the TLB (Count)
system.switch_cpus1.mmu.stage2_itb.flushTlb            2                       # Number of times complete TLB was flushed (Count)
system.switch_cpus1.mmu.stage2_itb.flushTlbMva            0                       # Number of times TLB was flushed by MVA (Count)
system.switch_cpus1.mmu.stage2_itb.flushTlbMvaAsid            0                       # Number of times TLB was flushed by MVA & ASID (Count)
system.switch_cpus1.mmu.stage2_itb.flushTlbAsid            0                       # Number of times TLB was flushed by ASID (Count)
system.switch_cpus1.mmu.stage2_itb.flushedEntries            0                       # Number of entries that have been flushed from TLB (Count)
system.switch_cpus1.mmu.stage2_itb.instAccesses            0                       # Inst accesses (Count)
system.switch_cpus1.mmu.stage2_itb.hits             0                       # Total TLB (inst and data) hits (Count)
system.switch_cpus1.mmu.stage2_itb.misses            0                       # Total TLB (inst and data) misses (Count)
system.switch_cpus1.mmu.stage2_itb.accesses            0                       # Total TLB (inst and data) accesses (Count)
system.switch_cpus1.mmu.stage2_itb_walker.walks            0                       # Table walker walks requested (Count)
system.switch_cpus1.mmu.stage2_itb_walker.requestOrigin_Requested::Data            0                       # Table walker requests started/completed, data/inst (Count)
system.switch_cpus1.mmu.stage2_itb_walker.requestOrigin_Requested::Inst            0                       # Table walker requests started/completed, data/inst (Count)
system.switch_cpus1.mmu.stage2_itb_walker.requestOrigin_Requested::total            0                       # Table walker requests started/completed, data/inst (Count)
system.switch_cpus1.mmu.stage2_itb_walker.requestOrigin_Completed::Data            0                       # Table walker requests started/completed, data/inst (Count)
system.switch_cpus1.mmu.stage2_itb_walker.requestOrigin_Completed::Inst            0                       # Table walker requests started/completed, data/inst (Count)
system.switch_cpus1.mmu.stage2_itb_walker.requestOrigin_Completed::total            0                       # Table walker requests started/completed, data/inst (Count)
system.switch_cpus1.mmu.stage2_itb_walker.requestOrigin::total            0                       # Table walker requests started/completed, data/inst (Count)
system.switch_cpus1.mmu.stage2_itb_walker.power_state.pwrStateResidencyTicks::UNDEFINED 11495886262500                       # Cumulative time (in ticks) in various power states (Tick)
system.switch_cpus1.power_state.numTransitions            5                       # Number of power state transitions (Count)
system.switch_cpus1.power_state.ticksClkGated::samples            2                       # Distribution of time spent in the clock gated state (Tick)
system.switch_cpus1.power_state.ticksClkGated::mean 1583932000.500000                       # Distribution of time spent in the clock gated state (Tick)
system.switch_cpus1.power_state.ticksClkGated::stdev 2240017408.462853                       # Distribution of time spent in the clock gated state (Tick)
system.switch_cpus1.power_state.ticksClkGated::underflows            1     50.00%     50.00% # Distribution of time spent in the clock gated state (Tick)
system.switch_cpus1.power_state.ticksClkGated::1000-5e+10            1     50.00%    100.00% # Distribution of time spent in the clock gated state (Tick)
system.switch_cpus1.power_state.ticksClkGated::min_value          501                       # Distribution of time spent in the clock gated state (Tick)
system.switch_cpus1.power_state.ticksClkGated::max_value   3167863500                       # Distribution of time spent in the clock gated state (Tick)
system.switch_cpus1.power_state.ticksClkGated::total            2                       # Distribution of time spent in the clock gated state (Tick)
system.switch_cpus1.power_state.pwrStateResidencyTicks::ON   8044875749                       # Cumulative time (in ticks) in various power states (Tick)
system.switch_cpus1.power_state.pwrStateResidencyTicks::CLK_GATED   3167864001                       # Cumulative time (in ticks) in various power states (Tick)
system.switch_cpus1.power_state.pwrStateResidencyTicks::OFF 11484673522750                       # Cumulative time (in ticks) in various power states (Tick)
system.switch_cpus1.rename.squashCycles         68876                       # Number of cycles rename is squashing (Cycle)
system.switch_cpus1.rename.idleCycles       141004974                       # Number of cycles rename is idle (Cycle)
system.switch_cpus1.rename.blockCycles     6470344534                       # Number of cycles rename is blocking (Cycle)
system.switch_cpus1.rename.serializeStallCycles     28673214                       # count of cycles rename stalled for serializing inst (Cycle)
system.switch_cpus1.rename.runCycles        232137104                       # Number of cycles rename is running (Cycle)
system.switch_cpus1.rename.unblockCycles   4843757097                       # Number of cycles rename is unblocking (Cycle)
system.switch_cpus1.rename.renamedInsts    2228249306                       # Number of instructions processed by rename (Count)
system.switch_cpus1.rename.ROBFullEvents        21491                       # Number of times rename has blocked due to ROB full (Count)
system.switch_cpus1.rename.IQFullEvents        228909                       # Number of times rename has blocked due to IQ full (Count)
system.switch_cpus1.rename.LQFullEvents         22002                       # Number of times rename has blocked due to LQ full (Count)
system.switch_cpus1.rename.SQFullEvents    4811469960                       # Number of times rename has blocked due to SQ full (Count)
system.switch_cpus1.rename.renamedOperands   2042594425                       # Number of destination operands rename has renamed (Count)
system.switch_cpus1.rename.lookups         3157273689                       # Number of register rename lookups that rename has made (Count)
system.switch_cpus1.rename.intLookups      2876716949                       # Number of integer rename lookups (Count)
system.switch_cpus1.rename.vecLookups             541                       # Number of vector rename lookups (Count)
system.switch_cpus1.rename.committedMaps   2040331344                       # Number of HB maps that are committed (Count)
system.switch_cpus1.rename.undoneMaps         2263081                       # Number of HB maps that are undone due to squashing (Count)
system.switch_cpus1.rename.serializing         170306                       # count of serializing insts renamed (Count)
system.switch_cpus1.rename.tempSerializing        16263                       # count of temporary serializing insts renamed (Count)
system.switch_cpus1.rename.skidInsts        830165033                       # count of insts added to the skid buffer (Count)
system.switch_cpus1.rob.reads             13755963456                       # The number of ROB reads (Count)
system.switch_cpus1.rob.writes             4456415435                       # The number of ROB writes (Count)
system.switch_cpus1.thread_0.numInsts       930334057                       # Number of Instructions committed (Count)
system.switch_cpus1.thread_0.numOps        2225745662                       # Number of Ops committed (Count)
system.switch_cpus1.thread_0.numMemRefs             0                       # Number of Memory References (Count)
system.tollcbus.transDist::ReadReq             282680                       # Transaction distribution (Count)
system.tollcbus.transDist::ReadResp         198422605                       # Transaction distribution (Count)
system.tollcbus.transDist::WriteReq             43356                       # Transaction distribution (Count)
system.tollcbus.transDist::WriteResp            43356                       # Transaction distribution (Count)
system.tollcbus.transDist::WritebackDirty    251564014                       # Transaction distribution (Count)
system.tollcbus.transDist::CleanEvict       411595401                       # Transaction distribution (Count)
system.tollcbus.transDist::UpgradeReq            2614                       # Transaction distribution (Count)
system.tollcbus.transDist::UpgradeResp           2614                       # Transaction distribution (Count)
system.tollcbus.transDist::ReadExReq        125298332                       # Transaction distribution (Count)
system.tollcbus.transDist::ReadExResp       125298332                       # Transaction distribution (Count)
system.tollcbus.transDist::ReadSharedReq    198139925                       # Transaction distribution (Count)
system.tollcbus.transDist::InvalidateReq       108758                       # Transaction distribution (Count)
system.tollcbus.transDist::InvalidateResp       108758                       # Transaction distribution (Count)
system.tollcbus.pktCount_system.cpu0.l2cache.mem_side_port::system.llc.cpu_side_port    415007220                       # Packet count per connected requestor and responder (Count)
system.tollcbus.pktCount_system.cpu1.l2cache.mem_side_port::system.llc.cpu_side_port    556260129                       # Packet count per connected requestor and responder (Count)
system.tollcbus.pktCount::total             971267349                       # Packet count per connected requestor and responder (Count)
system.tollcbus.pktSize_system.cpu0.l2cache.mem_side_port::system.llc.cpu_side_port  10968096823                       # Cumulative packet size per connected requestor and responder (Byte)
system.tollcbus.pktSize_system.cpu1.l2cache.mem_side_port::system.llc.cpu_side_port  17785167776                       # Cumulative packet size per connected requestor and responder (Byte)
system.tollcbus.pktSize::total            28753264599                       # Cumulative packet size per connected requestor and responder (Byte)
system.tollcbus.snoops                      339643396                       # Total snoops (Count)
system.tollcbus.snoopTraffic               8048106112                       # Total snoop traffic (Byte)
system.tollcbus.snoopFanout::samples        663264970                       # Request fanout histogram (Count)
system.tollcbus.snoopFanout::mean            0.106853                       # Request fanout histogram (Count)
system.tollcbus.snoopFanout::stdev           0.310015                       # Request fanout histogram (Count)
system.tollcbus.snoopFanout::underflows             0      0.00%      0.00% # Request fanout histogram (Count)
system.tollcbus.snoopFanout::0              592616545     89.35%     89.35% # Request fanout histogram (Count)
system.tollcbus.snoopFanout::1               70425037     10.62%     99.97% # Request fanout histogram (Count)
system.tollcbus.snoopFanout::2                 223388      0.03%    100.00% # Request fanout histogram (Count)
system.tollcbus.snoopFanout::overflows              0      0.00%    100.00% # Request fanout histogram (Count)
system.tollcbus.snoopFanout::min_value              0                       # Request fanout histogram (Count)
system.tollcbus.snoopFanout::max_value              2                       # Request fanout histogram (Count)
system.tollcbus.snoopFanout::total          663264970                       # Request fanout histogram (Count)
system.tollcbus.power_state.pwrStateResidencyTicks::UNDEFINED 11495886262500                       # Cumulative time (in ticks) in various power states (Tick)
system.tollcbus.reqLayer0.occupancy      449405874630                       # Layer occupancy (ticks) (Tick)
system.tollcbus.reqLayer0.utilization             0.0                       # Layer utilization (Ratio)
system.tollcbus.respLayer0.occupancy     207222620504                       # Layer occupancy (ticks) (Tick)
system.tollcbus.respLayer0.utilization            0.0                       # Layer utilization (Ratio)
system.tollcbus.respLayer1.occupancy     278069621746                       # Layer occupancy (ticks) (Tick)
system.tollcbus.respLayer1.utilization            0.0                       # Layer utilization (Ratio)
system.tollcbus.snoop_filter.totRequests    647075989                       # Total number of requests made to the snoop filter. (Count)
system.tollcbus.snoop_filter.hitSingleRequests    323528353                       # Number of requests hitting in the snoop filter with a single holder of the requested data. (Count)
system.tollcbus.snoop_filter.hitMultiRequests       295965                       # Number of requests hitting in the snoop filter with multiple (>1) holders of the requested data. (Count)
system.tollcbus.snoop_filter.totSnoops       70350771                       # Total number of snoops made to the snoop filter. (Count)
system.tollcbus.snoop_filter.hitSingleSnoops     70127383                       # Number of snoops hitting in the snoop filter with a single holder of the requested data. (Count)
system.tollcbus.snoop_filter.hitMultiSnoops       223388                       # Number of snoops hitting in the snoop filter with multiple (>1) holders of the requested data. (Count)
system.voltage_domain.voltage                       1                       # Voltage in Volts (Volt)
system.workload.inst.arm                            0                       # number of arm instructions executed (Count)
system.workload.inst.quiesce                        6                       # number of quiesce instructions executed (Count)

---------- End Simulation Statistics   ----------
