
---------- Begin Simulation Statistics ----------
simSeconds                                  12.025616                       # Number of seconds simulated (Second)
simTicks                                 12025616113500                       # Number of ticks simulated (Tick)
finalTick                                12025616113500                       # Number of ticks from beginning of simulation (restored from checkpoints and never reset) (Tick)
simFreq                                  1000000000000                       # The number of ticks per simulated second ((Tick/Second))
hostSeconds                                 109510.76                       # Real time elapsed on the host (Second)
hostTickRate                                109812190                       # The number of ticks simulated per host second (ticks/s) ((Tick/Second))
hostMemory                                   18113164                       # Number of bytes of host memory used (Byte)
simInsts                                  15834001894                       # Number of instructions simulated (Count)
simOps                                    18047860760                       # Number of ops (including micro ops) simulated (Count)
hostInstRate                                   144589                       # Simulator instruction rate (inst/s) ((Count/Second))
hostOpRate                                     164804                       # Simulator op (including micro ops) rate (op/s) ((Count/Second))
system.bridge.power_state.pwrStateResidencyTicks::UNDEFINED 12025616113500                       # Cumulative time (in ticks) in various power states (Tick)
system.clk_domain.clock                          1000                       # Clock period in ticks (Tick)
system.cpu0.numCycles                      1440388783                       # Number of cpu cycles simulated (Cycle)
system.cpu0.numWorkItemsStarted                     0                       # Number of work items this cpu started (Count)
system.cpu0.numWorkItemsCompleted                   0                       # Number of work items this cpu completed (Count)
system.cpu0.committedInsts                  643512442                       # Number of instructions committed (Count)
system.cpu0.numVMExits                         115767                       # total number of KVM exits (Count)
system.cpu0.numVMHalfEntries                        0                       # number of KVM entries to finalize pending operations (Count)
system.cpu0.numExitSignal                        3590                       # exits due to signal delivery (Count)
system.cpu0.numMMIO                            112177                       # number of VM exits due to memory mapped IO (Count)
system.cpu0.numCoalescedMMIO                        0                       # number of coalesced memory mapped IO requests (Count)
system.cpu0.numIO                                   0                       # number of VM exits due to legacy IO (Count)
system.cpu0.numHalt                                 0                       # number of VM exits due to wait for interrupt instructions (Count)
system.cpu0.numInterrupts                           0                       # number of interrupts delivered (Count)
system.cpu0.numHypercalls                           0                       # number of hypercalls (Count)
system.cpu0.dcache.demandHits::switch_cpus0.data   4381889598                       # number of demand (read+write) hits (Count)
system.cpu0.dcache.demandHits::total       4381889598                       # number of demand (read+write) hits (Count)
system.cpu0.dcache.overallHits::switch_cpus0.data   4381922099                       # number of overall hits (Count)
system.cpu0.dcache.overallHits::total      4381922099                       # number of overall hits (Count)
system.cpu0.dcache.demandMisses::switch_cpus0.data   1042183408                       # number of demand (read+write) misses (Count)
system.cpu0.dcache.demandMisses::total     1042183408                       # number of demand (read+write) misses (Count)
system.cpu0.dcache.overallMisses::switch_cpus0.data   1042191429                       # number of overall misses (Count)
system.cpu0.dcache.overallMisses::total    1042191429                       # number of overall misses (Count)
system.cpu0.dcache.demandMissLatency::switch_cpus0.data 98561715289571                       # number of demand (read+write) miss ticks (Tick)
system.cpu0.dcache.demandMissLatency::total 98561715289571                       # number of demand (read+write) miss ticks (Tick)
system.cpu0.dcache.overallMissLatency::switch_cpus0.data 98561715289571                       # number of overall miss ticks (Tick)
system.cpu0.dcache.overallMissLatency::total 98561715289571                       # number of overall miss ticks (Tick)
system.cpu0.dcache.demandAccesses::switch_cpus0.data   5424073006                       # number of demand (read+write) accesses (Count)
system.cpu0.dcache.demandAccesses::total   5424073006                       # number of demand (read+write) accesses (Count)
system.cpu0.dcache.overallAccesses::switch_cpus0.data   5424113528                       # number of overall (read+write) accesses (Count)
system.cpu0.dcache.overallAccesses::total   5424113528                       # number of overall (read+write) accesses (Count)
system.cpu0.dcache.demandMissRate::switch_cpus0.data     0.192140                       # miss rate for demand accesses (Ratio)
system.cpu0.dcache.demandMissRate::total     0.192140                       # miss rate for demand accesses (Ratio)
system.cpu0.dcache.overallMissRate::switch_cpus0.data     0.192140                       # miss rate for overall accesses (Ratio)
system.cpu0.dcache.overallMissRate::total     0.192140                       # miss rate for overall accesses (Ratio)
system.cpu0.dcache.demandAvgMissLatency::switch_cpus0.data 94572.332022                       # average overall miss latency in ticks ((Tick/Count))
system.cpu0.dcache.demandAvgMissLatency::total 94572.332022                       # average overall miss latency in ticks ((Tick/Count))
system.cpu0.dcache.overallAvgMissLatency::switch_cpus0.data 94571.604167                       # average overall miss latency ((Tick/Count))
system.cpu0.dcache.overallAvgMissLatency::total 94571.604167                       # average overall miss latency ((Tick/Count))
system.cpu0.dcache.blockedCycles::no_mshrs   1845460254                       # number of cycles access was blocked (Cycle)
system.cpu0.dcache.blockedCycles::no_targets         2257                       # number of cycles access was blocked (Cycle)
system.cpu0.dcache.blockedCauses::no_mshrs     57871308                       # number of times access was blocked (Count)
system.cpu0.dcache.blockedCauses::no_targets           33                       # number of times access was blocked (Count)
system.cpu0.dcache.avgBlocked::no_mshrs     31.889037                       # average number of cycles each access was blocked ((Cycle/Count))
system.cpu0.dcache.avgBlocked::no_targets    68.393939                       # average number of cycles each access was blocked ((Cycle/Count))
system.cpu0.dcache.writebacks::writebacks     65208500                       # number of writebacks (Count)
system.cpu0.dcache.writebacks::total         65208500                       # number of writebacks (Count)
system.cpu0.dcache.demandMshrHits::switch_cpus0.data    815223557                       # number of demand (read+write) MSHR hits (Count)
system.cpu0.dcache.demandMshrHits::total    815223557                       # number of demand (read+write) MSHR hits (Count)
system.cpu0.dcache.overallMshrHits::switch_cpus0.data    815223557                       # number of overall MSHR hits (Count)
system.cpu0.dcache.overallMshrHits::total    815223557                       # number of overall MSHR hits (Count)
system.cpu0.dcache.demandMshrMisses::switch_cpus0.data    226959851                       # number of demand (read+write) MSHR misses (Count)
system.cpu0.dcache.demandMshrMisses::total    226959851                       # number of demand (read+write) MSHR misses (Count)
system.cpu0.dcache.overallMshrMisses::switch_cpus0.data    226965837                       # number of overall MSHR misses (Count)
system.cpu0.dcache.overallMshrMisses::total    226965837                       # number of overall MSHR misses (Count)
system.cpu0.dcache.overallMshrUncacheable::switch_cpus0.data       120950                       # number of overall MSHR uncacheable misses (Count)
system.cpu0.dcache.overallMshrUncacheable::total       120950                       # number of overall MSHR uncacheable misses (Count)
system.cpu0.dcache.demandMshrMissLatency::switch_cpus0.data 21389904975365                       # number of demand (read+write) MSHR miss ticks (Tick)
system.cpu0.dcache.demandMshrMissLatency::total 21389904975365                       # number of demand (read+write) MSHR miss ticks (Tick)
system.cpu0.dcache.overallMshrMissLatency::switch_cpus0.data 21390126193865                       # number of overall MSHR miss ticks (Tick)
system.cpu0.dcache.overallMshrMissLatency::total 21390126193865                       # number of overall MSHR miss ticks (Tick)
system.cpu0.dcache.overallMshrUncacheableLatency::switch_cpus0.data   6748572500                       # number of overall MSHR uncacheable ticks (Tick)
system.cpu0.dcache.overallMshrUncacheableLatency::total   6748572500                       # number of overall MSHR uncacheable ticks (Tick)
system.cpu0.dcache.demandMshrMissRate::switch_cpus0.data     0.041843                       # mshr miss ratio for demand accesses (Ratio)
system.cpu0.dcache.demandMshrMissRate::total     0.041843                       # mshr miss ratio for demand accesses (Ratio)
system.cpu0.dcache.overallMshrMissRate::switch_cpus0.data     0.041844                       # mshr miss ratio for overall accesses (Ratio)
system.cpu0.dcache.overallMshrMissRate::total     0.041844                       # mshr miss ratio for overall accesses (Ratio)
system.cpu0.dcache.demandAvgMshrMissLatency::switch_cpus0.data 94245.325246                       # average overall mshr miss latency ((Tick/Count))
system.cpu0.dcache.demandAvgMshrMissLatency::total 94245.325246                       # average overall mshr miss latency ((Tick/Count))
system.cpu0.dcache.overallAvgMshrMissLatency::switch_cpus0.data 94243.814296                       # average overall mshr miss latency ((Tick/Count))
system.cpu0.dcache.overallAvgMshrMissLatency::total 94243.814296                       # average overall mshr miss latency ((Tick/Count))
system.cpu0.dcache.overallAvgMshrUncacheableLatency::switch_cpus0.data 55796.382803                       # average overall mshr uncacheable latency ((Tick/Count))
system.cpu0.dcache.overallAvgMshrUncacheableLatency::total 55796.382803                       # average overall mshr uncacheable latency ((Tick/Count))
system.cpu0.dcache.replacements             226994336                       # number of replacements (Count)
system.cpu0.dcache.CleanSharedReq.missLatency::switch_cpus0.data        70000                       # number of CleanSharedReq miss ticks (Tick)
system.cpu0.dcache.CleanSharedReq.missLatency::total        70000                       # number of CleanSharedReq miss ticks (Tick)
system.cpu0.dcache.CleanSharedReq.avgMissLatency::switch_cpus0.data          inf                       # average CleanSharedReq miss latency ((Tick/Count))
system.cpu0.dcache.CleanSharedReq.avgMissLatency::total          inf                       # average CleanSharedReq miss latency ((Tick/Count))
system.cpu0.dcache.CleanSharedReq.mshrMisses::switch_cpus0.data        61376                       # number of CleanSharedReq MSHR misses (Count)
system.cpu0.dcache.CleanSharedReq.mshrMisses::total        61376                       # number of CleanSharedReq MSHR misses (Count)
system.cpu0.dcache.CleanSharedReq.mshrMissLatency::switch_cpus0.data     93631026                       # number of CleanSharedReq MSHR miss ticks (Tick)
system.cpu0.dcache.CleanSharedReq.mshrMissLatency::total     93631026                       # number of CleanSharedReq MSHR miss ticks (Tick)
system.cpu0.dcache.CleanSharedReq.mshrMissRate::switch_cpus0.data          inf                       # mshr miss rate for CleanSharedReq accesses (Ratio)
system.cpu0.dcache.CleanSharedReq.mshrMissRate::total          inf                       # mshr miss rate for CleanSharedReq accesses (Ratio)
system.cpu0.dcache.CleanSharedReq.avgMshrMissLatency::switch_cpus0.data  1525.531576                       # average CleanSharedReq mshr miss latency ((Tick/Count))
system.cpu0.dcache.CleanSharedReq.avgMshrMissLatency::total  1525.531576                       # average CleanSharedReq mshr miss latency ((Tick/Count))
system.cpu0.dcache.LoadLockedReq.hits::switch_cpus0.data          158                       # number of LoadLockedReq hits (Count)
system.cpu0.dcache.LoadLockedReq.hits::total          158                       # number of LoadLockedReq hits (Count)
system.cpu0.dcache.LoadLockedReq.misses::switch_cpus0.data            5                       # number of LoadLockedReq misses (Count)
system.cpu0.dcache.LoadLockedReq.misses::total            5                       # number of LoadLockedReq misses (Count)
system.cpu0.dcache.LoadLockedReq.missLatency::switch_cpus0.data       204500                       # number of LoadLockedReq miss ticks (Tick)
system.cpu0.dcache.LoadLockedReq.missLatency::total       204500                       # number of LoadLockedReq miss ticks (Tick)
system.cpu0.dcache.LoadLockedReq.accesses::switch_cpus0.data          163                       # number of LoadLockedReq accesses(hits+misses) (Count)
system.cpu0.dcache.LoadLockedReq.accesses::total          163                       # number of LoadLockedReq accesses(hits+misses) (Count)
system.cpu0.dcache.LoadLockedReq.missRate::switch_cpus0.data     0.030675                       # miss rate for LoadLockedReq accesses (Ratio)
system.cpu0.dcache.LoadLockedReq.missRate::total     0.030675                       # miss rate for LoadLockedReq accesses (Ratio)
system.cpu0.dcache.LoadLockedReq.avgMissLatency::switch_cpus0.data        40900                       # average LoadLockedReq miss latency ((Tick/Count))
system.cpu0.dcache.LoadLockedReq.avgMissLatency::total        40900                       # average LoadLockedReq miss latency ((Tick/Count))
system.cpu0.dcache.LoadLockedReq.mshrHits::switch_cpus0.data            1                       # number of LoadLockedReq MSHR hits (Count)
system.cpu0.dcache.LoadLockedReq.mshrHits::total            1                       # number of LoadLockedReq MSHR hits (Count)
system.cpu0.dcache.LoadLockedReq.mshrMisses::switch_cpus0.data            4                       # number of LoadLockedReq MSHR misses (Count)
system.cpu0.dcache.LoadLockedReq.mshrMisses::total            4                       # number of LoadLockedReq MSHR misses (Count)
system.cpu0.dcache.LoadLockedReq.mshrMissLatency::switch_cpus0.data       189000                       # number of LoadLockedReq MSHR miss ticks (Tick)
system.cpu0.dcache.LoadLockedReq.mshrMissLatency::total       189000                       # number of LoadLockedReq MSHR miss ticks (Tick)
system.cpu0.dcache.LoadLockedReq.mshrMissRate::switch_cpus0.data     0.024540                       # mshr miss rate for LoadLockedReq accesses (Ratio)
system.cpu0.dcache.LoadLockedReq.mshrMissRate::total     0.024540                       # mshr miss rate for LoadLockedReq accesses (Ratio)
system.cpu0.dcache.LoadLockedReq.avgMshrMissLatency::switch_cpus0.data        47250                       # average LoadLockedReq mshr miss latency ((Tick/Count))
system.cpu0.dcache.LoadLockedReq.avgMshrMissLatency::total        47250                       # average LoadLockedReq mshr miss latency ((Tick/Count))
system.cpu0.dcache.ReadReq.hits::switch_cpus0.data   3085212587                       # number of ReadReq hits (Count)
system.cpu0.dcache.ReadReq.hits::total     3085212587                       # number of ReadReq hits (Count)
system.cpu0.dcache.ReadReq.misses::switch_cpus0.data    960524237                       # number of ReadReq misses (Count)
system.cpu0.dcache.ReadReq.misses::total    960524237                       # number of ReadReq misses (Count)
system.cpu0.dcache.ReadReq.missLatency::switch_cpus0.data 94224339079500                       # number of ReadReq miss ticks (Tick)
system.cpu0.dcache.ReadReq.missLatency::total 94224339079500                       # number of ReadReq miss ticks (Tick)
system.cpu0.dcache.ReadReq.accesses::switch_cpus0.data   4045736824                       # number of ReadReq accesses(hits+misses) (Count)
system.cpu0.dcache.ReadReq.accesses::total   4045736824                       # number of ReadReq accesses(hits+misses) (Count)
system.cpu0.dcache.ReadReq.missRate::switch_cpus0.data     0.237416                       # miss rate for ReadReq accesses (Ratio)
system.cpu0.dcache.ReadReq.missRate::total     0.237416                       # miss rate for ReadReq accesses (Ratio)
system.cpu0.dcache.ReadReq.avgMissLatency::switch_cpus0.data 98096.784495                       # average ReadReq miss latency ((Tick/Count))
system.cpu0.dcache.ReadReq.avgMissLatency::total 98096.784495                       # average ReadReq miss latency ((Tick/Count))
system.cpu0.dcache.ReadReq.mshrHits::switch_cpus0.data    796203557                       # number of ReadReq MSHR hits (Count)
system.cpu0.dcache.ReadReq.mshrHits::total    796203557                       # number of ReadReq MSHR hits (Count)
system.cpu0.dcache.ReadReq.mshrMisses::switch_cpus0.data    164320680                       # number of ReadReq MSHR misses (Count)
system.cpu0.dcache.ReadReq.mshrMisses::total    164320680                       # number of ReadReq MSHR misses (Count)
system.cpu0.dcache.ReadReq.mshrUncacheable::switch_cpus0.data       105712                       # number of ReadReq MSHR uncacheable (Count)
system.cpu0.dcache.ReadReq.mshrUncacheable::total       105712                       # number of ReadReq MSHR uncacheable (Count)
system.cpu0.dcache.ReadReq.mshrMissLatency::switch_cpus0.data 18007509459002                       # number of ReadReq MSHR miss ticks (Tick)
system.cpu0.dcache.ReadReq.mshrMissLatency::total 18007509459002                       # number of ReadReq MSHR miss ticks (Tick)
system.cpu0.dcache.ReadReq.mshrUncacheableLatency::switch_cpus0.data   6748572500                       # number of ReadReq MSHR uncacheable ticks (Tick)
system.cpu0.dcache.ReadReq.mshrUncacheableLatency::total   6748572500                       # number of ReadReq MSHR uncacheable ticks (Tick)
system.cpu0.dcache.ReadReq.mshrMissRate::switch_cpus0.data     0.040616                       # mshr miss rate for ReadReq accesses (Ratio)
system.cpu0.dcache.ReadReq.mshrMissRate::total     0.040616                       # mshr miss rate for ReadReq accesses (Ratio)
system.cpu0.dcache.ReadReq.avgMshrMissLatency::switch_cpus0.data 109587.603088                       # average ReadReq mshr miss latency ((Tick/Count))
system.cpu0.dcache.ReadReq.avgMshrMissLatency::total 109587.603088                       # average ReadReq mshr miss latency ((Tick/Count))
system.cpu0.dcache.ReadReq.avgMshrUncacheableLatency::switch_cpus0.data 63839.228281                       # average ReadReq mshr uncacheable latency ((Tick/Count))
system.cpu0.dcache.ReadReq.avgMshrUncacheableLatency::total 63839.228281                       # average ReadReq mshr uncacheable latency ((Tick/Count))
system.cpu0.dcache.SoftPFExReq.hits::switch_cpus0.data        24783                       # number of SoftPFExReq hits (Count)
system.cpu0.dcache.SoftPFExReq.hits::total        24783                       # number of SoftPFExReq hits (Count)
system.cpu0.dcache.SoftPFExReq.misses::switch_cpus0.data            1                       # number of SoftPFExReq misses (Count)
system.cpu0.dcache.SoftPFExReq.misses::total            1                       # number of SoftPFExReq misses (Count)
system.cpu0.dcache.SoftPFExReq.accesses::switch_cpus0.data        24784                       # number of SoftPFExReq accesses(hits+misses) (Count)
system.cpu0.dcache.SoftPFExReq.accesses::total        24784                       # number of SoftPFExReq accesses(hits+misses) (Count)
system.cpu0.dcache.SoftPFExReq.missRate::switch_cpus0.data     0.000040                       # miss rate for SoftPFExReq accesses (Ratio)
system.cpu0.dcache.SoftPFExReq.missRate::total     0.000040                       # miss rate for SoftPFExReq accesses (Ratio)
system.cpu0.dcache.SoftPFReq.hits::switch_cpus0.data         7718                       # number of SoftPFReq hits (Count)
system.cpu0.dcache.SoftPFReq.hits::total         7718                       # number of SoftPFReq hits (Count)
system.cpu0.dcache.SoftPFReq.misses::switch_cpus0.data         8020                       # number of SoftPFReq misses (Count)
system.cpu0.dcache.SoftPFReq.misses::total         8020                       # number of SoftPFReq misses (Count)
system.cpu0.dcache.SoftPFReq.accesses::switch_cpus0.data        15738                       # number of SoftPFReq accesses(hits+misses) (Count)
system.cpu0.dcache.SoftPFReq.accesses::total        15738                       # number of SoftPFReq accesses(hits+misses) (Count)
system.cpu0.dcache.SoftPFReq.missRate::switch_cpus0.data     0.509595                       # miss rate for SoftPFReq accesses (Ratio)
system.cpu0.dcache.SoftPFReq.missRate::total     0.509595                       # miss rate for SoftPFReq accesses (Ratio)
system.cpu0.dcache.SoftPFReq.mshrMisses::switch_cpus0.data         5986                       # number of SoftPFReq MSHR misses (Count)
system.cpu0.dcache.SoftPFReq.mshrMisses::total         5986                       # number of SoftPFReq MSHR misses (Count)
system.cpu0.dcache.SoftPFReq.mshrMissLatency::switch_cpus0.data    221218500                       # number of SoftPFReq MSHR miss ticks (Tick)
system.cpu0.dcache.SoftPFReq.mshrMissLatency::total    221218500                       # number of SoftPFReq MSHR miss ticks (Tick)
system.cpu0.dcache.SoftPFReq.mshrMissRate::switch_cpus0.data     0.380353                       # mshr miss rate for SoftPFReq accesses (Ratio)
system.cpu0.dcache.SoftPFReq.mshrMissRate::total     0.380353                       # mshr miss rate for SoftPFReq accesses (Ratio)
system.cpu0.dcache.SoftPFReq.avgMshrMissLatency::switch_cpus0.data 36955.980621                       # average SoftPFReq mshr miss latency ((Tick/Count))
system.cpu0.dcache.SoftPFReq.avgMshrMissLatency::total 36955.980621                       # average SoftPFReq mshr miss latency ((Tick/Count))
system.cpu0.dcache.StoreCondReq.hits::switch_cpus0.data          133                       # number of StoreCondReq hits (Count)
system.cpu0.dcache.StoreCondReq.hits::total          133                       # number of StoreCondReq hits (Count)
system.cpu0.dcache.StoreCondReq.misses::switch_cpus0.data            1                       # number of StoreCondReq misses (Count)
system.cpu0.dcache.StoreCondReq.misses::total            1                       # number of StoreCondReq misses (Count)
system.cpu0.dcache.StoreCondReq.missLatency::switch_cpus0.data        13000                       # number of StoreCondReq miss ticks (Tick)
system.cpu0.dcache.StoreCondReq.missLatency::total        13000                       # number of StoreCondReq miss ticks (Tick)
system.cpu0.dcache.StoreCondReq.accesses::switch_cpus0.data          134                       # number of StoreCondReq accesses(hits+misses) (Count)
system.cpu0.dcache.StoreCondReq.accesses::total          134                       # number of StoreCondReq accesses(hits+misses) (Count)
system.cpu0.dcache.StoreCondReq.missRate::switch_cpus0.data     0.007463                       # miss rate for StoreCondReq accesses (Ratio)
system.cpu0.dcache.StoreCondReq.missRate::total     0.007463                       # miss rate for StoreCondReq accesses (Ratio)
system.cpu0.dcache.StoreCondReq.avgMissLatency::switch_cpus0.data        13000                       # average StoreCondReq miss latency ((Tick/Count))
system.cpu0.dcache.StoreCondReq.avgMissLatency::total        13000                       # average StoreCondReq miss latency ((Tick/Count))
system.cpu0.dcache.StoreCondReq.mshrMisses::switch_cpus0.data            1                       # number of StoreCondReq MSHR misses (Count)
system.cpu0.dcache.StoreCondReq.mshrMisses::total            1                       # number of StoreCondReq MSHR misses (Count)
system.cpu0.dcache.StoreCondReq.mshrMissLatency::switch_cpus0.data        12000                       # number of StoreCondReq MSHR miss ticks (Tick)
system.cpu0.dcache.StoreCondReq.mshrMissLatency::total        12000                       # number of StoreCondReq MSHR miss ticks (Tick)
system.cpu0.dcache.StoreCondReq.mshrMissRate::switch_cpus0.data     0.007463                       # mshr miss rate for StoreCondReq accesses (Ratio)
system.cpu0.dcache.StoreCondReq.mshrMissRate::total     0.007463                       # mshr miss rate for StoreCondReq accesses (Ratio)
system.cpu0.dcache.StoreCondReq.avgMshrMissLatency::switch_cpus0.data        12000                       # average StoreCondReq mshr miss latency ((Tick/Count))
system.cpu0.dcache.StoreCondReq.avgMshrMissLatency::total        12000                       # average StoreCondReq mshr miss latency ((Tick/Count))
system.cpu0.dcache.SwapReq.hits::switch_cpus0.data      4254807                       # number of SwapReq hits (Count)
system.cpu0.dcache.SwapReq.hits::total        4254807                       # number of SwapReq hits (Count)
system.cpu0.dcache.SwapReq.misses::switch_cpus0.data       149489                       # number of SwapReq misses (Count)
system.cpu0.dcache.SwapReq.misses::total       149489                       # number of SwapReq misses (Count)
system.cpu0.dcache.SwapReq.missLatency::switch_cpus0.data  10201935000                       # number of SwapReq miss ticks (Tick)
system.cpu0.dcache.SwapReq.missLatency::total  10201935000                       # number of SwapReq miss ticks (Tick)
system.cpu0.dcache.SwapReq.accesses::switch_cpus0.data      4404296                       # number of SwapReq accesses(hits+misses) (Count)
system.cpu0.dcache.SwapReq.accesses::total      4404296                       # number of SwapReq accesses(hits+misses) (Count)
system.cpu0.dcache.SwapReq.missRate::switch_cpus0.data     0.033942                       # miss rate for SwapReq accesses (Ratio)
system.cpu0.dcache.SwapReq.missRate::total     0.033942                       # miss rate for SwapReq accesses (Ratio)
system.cpu0.dcache.SwapReq.avgMissLatency::switch_cpus0.data 68245.389293                       # average SwapReq miss latency ((Tick/Count))
system.cpu0.dcache.SwapReq.avgMissLatency::total 68245.389293                       # average SwapReq miss latency ((Tick/Count))
system.cpu0.dcache.SwapReq.mshrHits::switch_cpus0.data            3                       # number of SwapReq MSHR hits (Count)
system.cpu0.dcache.SwapReq.mshrHits::total            3                       # number of SwapReq MSHR hits (Count)
system.cpu0.dcache.SwapReq.mshrMisses::switch_cpus0.data       149486                       # number of SwapReq MSHR misses (Count)
system.cpu0.dcache.SwapReq.mshrMisses::total       149486                       # number of SwapReq MSHR misses (Count)
system.cpu0.dcache.SwapReq.mshrMissLatency::switch_cpus0.data  10052350500                       # number of SwapReq MSHR miss ticks (Tick)
system.cpu0.dcache.SwapReq.mshrMissLatency::total  10052350500                       # number of SwapReq MSHR miss ticks (Tick)
system.cpu0.dcache.SwapReq.mshrMissRate::switch_cpus0.data     0.033941                       # mshr miss rate for SwapReq accesses (Ratio)
system.cpu0.dcache.SwapReq.mshrMissRate::total     0.033941                       # mshr miss rate for SwapReq accesses (Ratio)
system.cpu0.dcache.SwapReq.avgMshrMissLatency::switch_cpus0.data 67246.099969                       # average SwapReq mshr miss latency ((Tick/Count))
system.cpu0.dcache.SwapReq.avgMshrMissLatency::total 67246.099969                       # average SwapReq mshr miss latency ((Tick/Count))
system.cpu0.dcache.WriteLineReq.hits::switch_cpus0.data       698691                       # number of WriteLineReq hits (Count)
system.cpu0.dcache.WriteLineReq.hits::total       698691                       # number of WriteLineReq hits (Count)
system.cpu0.dcache.WriteLineReq.misses::switch_cpus0.data     52077661                       # number of WriteLineReq misses (Count)
system.cpu0.dcache.WriteLineReq.misses::total     52077661                       # number of WriteLineReq misses (Count)
system.cpu0.dcache.WriteLineReq.missLatency::switch_cpus0.data 3034947861382                       # number of WriteLineReq miss ticks (Tick)
system.cpu0.dcache.WriteLineReq.missLatency::total 3034947861382                       # number of WriteLineReq miss ticks (Tick)
system.cpu0.dcache.WriteLineReq.accesses::switch_cpus0.data     52776352                       # number of WriteLineReq accesses(hits+misses) (Count)
system.cpu0.dcache.WriteLineReq.accesses::total     52776352                       # number of WriteLineReq accesses(hits+misses) (Count)
system.cpu0.dcache.WriteLineReq.missRate::switch_cpus0.data     0.986761                       # miss rate for WriteLineReq accesses (Ratio)
system.cpu0.dcache.WriteLineReq.missRate::total     0.986761                       # miss rate for WriteLineReq accesses (Ratio)
system.cpu0.dcache.WriteLineReq.avgMissLatency::switch_cpus0.data 58277.345854                       # average WriteLineReq miss latency ((Tick/Count))
system.cpu0.dcache.WriteLineReq.avgMissLatency::total 58277.345854                       # average WriteLineReq miss latency ((Tick/Count))
system.cpu0.dcache.WriteLineReq.mshrHits::switch_cpus0.data          338                       # number of WriteLineReq MSHR hits (Count)
system.cpu0.dcache.WriteLineReq.mshrHits::total          338                       # number of WriteLineReq MSHR hits (Count)
system.cpu0.dcache.WriteLineReq.mshrMisses::switch_cpus0.data     52077323                       # number of WriteLineReq MSHR misses (Count)
system.cpu0.dcache.WriteLineReq.mshrMisses::total     52077323                       # number of WriteLineReq MSHR misses (Count)
system.cpu0.dcache.WriteLineReq.mshrMissLatency::switch_cpus0.data 2982845248882                       # number of WriteLineReq MSHR miss ticks (Tick)
system.cpu0.dcache.WriteLineReq.mshrMissLatency::total 2982845248882                       # number of WriteLineReq MSHR miss ticks (Tick)
system.cpu0.dcache.WriteLineReq.mshrMissRate::switch_cpus0.data     0.986755                       # mshr miss rate for WriteLineReq accesses (Ratio)
system.cpu0.dcache.WriteLineReq.mshrMissRate::total     0.986755                       # mshr miss rate for WriteLineReq accesses (Ratio)
system.cpu0.dcache.WriteLineReq.avgMshrMissLatency::switch_cpus0.data 57277.238480                       # average WriteLineReq mshr miss latency ((Tick/Count))
system.cpu0.dcache.WriteLineReq.avgMshrMissLatency::total 57277.238480                       # average WriteLineReq mshr miss latency ((Tick/Count))
system.cpu0.dcache.WriteReq.hits::switch_cpus0.data   1295978320                       # number of WriteReq hits (Count)
system.cpu0.dcache.WriteReq.hits::total    1295978320                       # number of WriteReq hits (Count)
system.cpu0.dcache.WriteReq.misses::switch_cpus0.data     29581510                       # number of WriteReq misses (Count)
system.cpu0.dcache.WriteReq.misses::total     29581510                       # number of WriteReq misses (Count)
system.cpu0.dcache.WriteReq.missLatency::switch_cpus0.data 1302428348689                       # number of WriteReq miss ticks (Tick)
system.cpu0.dcache.WriteReq.missLatency::total 1302428348689                       # number of WriteReq miss ticks (Tick)
system.cpu0.dcache.WriteReq.accesses::switch_cpus0.data   1325559830                       # number of WriteReq accesses(hits+misses) (Count)
system.cpu0.dcache.WriteReq.accesses::total   1325559830                       # number of WriteReq accesses(hits+misses) (Count)
system.cpu0.dcache.WriteReq.missRate::switch_cpus0.data     0.022316                       # miss rate for WriteReq accesses (Ratio)
system.cpu0.dcache.WriteReq.missRate::total     0.022316                       # miss rate for WriteReq accesses (Ratio)
system.cpu0.dcache.WriteReq.avgMissLatency::switch_cpus0.data 44028.460639                       # average WriteReq miss latency ((Tick/Count))
system.cpu0.dcache.WriteReq.avgMissLatency::total 44028.460639                       # average WriteReq miss latency ((Tick/Count))
system.cpu0.dcache.WriteReq.mshrHits::switch_cpus0.data     19019662                       # number of WriteReq MSHR hits (Count)
system.cpu0.dcache.WriteReq.mshrHits::total     19019662                       # number of WriteReq MSHR hits (Count)
system.cpu0.dcache.WriteReq.mshrMisses::switch_cpus0.data     10561848                       # number of WriteReq MSHR misses (Count)
system.cpu0.dcache.WriteReq.mshrMisses::total     10561848                       # number of WriteReq MSHR misses (Count)
system.cpu0.dcache.WriteReq.mshrUncacheable::switch_cpus0.data        15238                       # number of WriteReq MSHR uncacheable (Count)
system.cpu0.dcache.WriteReq.mshrUncacheable::total        15238                       # number of WriteReq MSHR uncacheable (Count)
system.cpu0.dcache.WriteReq.mshrMissLatency::switch_cpus0.data 399550267481                       # number of WriteReq MSHR miss ticks (Tick)
system.cpu0.dcache.WriteReq.mshrMissLatency::total 399550267481                       # number of WriteReq MSHR miss ticks (Tick)
system.cpu0.dcache.WriteReq.mshrMissRate::switch_cpus0.data     0.007968                       # mshr miss rate for WriteReq accesses (Ratio)
system.cpu0.dcache.WriteReq.mshrMissRate::total     0.007968                       # mshr miss rate for WriteReq accesses (Ratio)
system.cpu0.dcache.WriteReq.avgMshrMissLatency::switch_cpus0.data 37829.579396                       # average WriteReq mshr miss latency ((Tick/Count))
system.cpu0.dcache.WriteReq.avgMshrMissLatency::total 37829.579396                       # average WriteReq mshr miss latency ((Tick/Count))
system.cpu0.dcache.power_state.pwrStateResidencyTicks::UNDEFINED 12025616113500                       # Cumulative time (in ticks) in various power states (Tick)
system.cpu0.dcache.tags.tagsInUse          824.737424                       # Average ticks per tags in use ((Tick/Count))
system.cpu0.dcache.tags.totalRefs          4613433576                       # Total number of references to valid blocks. (Count)
system.cpu0.dcache.tags.sampledRefs         226997051                       # Sample count of references to valid blocks. (Count)
system.cpu0.dcache.tags.avgRefs             20.323760                       # Average number of references to valid blocks. ((Count/Count))
system.cpu0.dcache.tags.warmupTick       2335636785500                       # The tick when the warmup percentage was hit. (Tick)
system.cpu0.dcache.tags.occupancies::switch_cpus0.data   824.737424                       # Average occupied blocks per tick, per requestor ((Count/Tick))
system.cpu0.dcache.tags.avgOccs::switch_cpus0.data     0.805408                       # Average percentage of cache occupancy ((Ratio/Tick))
system.cpu0.dcache.tags.avgOccs::total       0.805408                       # Average percentage of cache occupancy ((Ratio/Tick))
system.cpu0.dcache.tags.tagAccesses       21941315039                       # Number of tag accesses (Count)
system.cpu0.dcache.tags.dataAccesses      21941315039                       # Number of data accesses (Count)
system.cpu0.dcache.tags.power_state.pwrStateResidencyTicks::UNDEFINED 12025616113500                       # Cumulative time (in ticks) in various power states (Tick)
system.cpu0.icache.demandHits::switch_cpus0.inst   1719822005                       # number of demand (read+write) hits (Count)
system.cpu0.icache.demandHits::total       1719822005                       # number of demand (read+write) hits (Count)
system.cpu0.icache.overallHits::switch_cpus0.inst   1719822005                       # number of overall hits (Count)
system.cpu0.icache.overallHits::total      1719822005                       # number of overall hits (Count)
system.cpu0.icache.demandMisses::switch_cpus0.inst      3807095                       # number of demand (read+write) misses (Count)
system.cpu0.icache.demandMisses::total        3807095                       # number of demand (read+write) misses (Count)
system.cpu0.icache.overallMisses::switch_cpus0.inst      3807095                       # number of overall misses (Count)
system.cpu0.icache.overallMisses::total       3807095                       # number of overall misses (Count)
system.cpu0.icache.demandMissLatency::switch_cpus0.inst 198071152644                       # number of demand (read+write) miss ticks (Tick)
system.cpu0.icache.demandMissLatency::total 198071152644                       # number of demand (read+write) miss ticks (Tick)
system.cpu0.icache.overallMissLatency::switch_cpus0.inst 198071152644                       # number of overall miss ticks (Tick)
system.cpu0.icache.overallMissLatency::total 198071152644                       # number of overall miss ticks (Tick)
system.cpu0.icache.demandAccesses::switch_cpus0.inst   1723629100                       # number of demand (read+write) accesses (Count)
system.cpu0.icache.demandAccesses::total   1723629100                       # number of demand (read+write) accesses (Count)
system.cpu0.icache.overallAccesses::switch_cpus0.inst   1723629100                       # number of overall (read+write) accesses (Count)
system.cpu0.icache.overallAccesses::total   1723629100                       # number of overall (read+write) accesses (Count)
system.cpu0.icache.demandMissRate::switch_cpus0.inst     0.002209                       # miss rate for demand accesses (Ratio)
system.cpu0.icache.demandMissRate::total     0.002209                       # miss rate for demand accesses (Ratio)
system.cpu0.icache.overallMissRate::switch_cpus0.inst     0.002209                       # miss rate for overall accesses (Ratio)
system.cpu0.icache.overallMissRate::total     0.002209                       # miss rate for overall accesses (Ratio)
system.cpu0.icache.demandAvgMissLatency::switch_cpus0.inst 52026.847936                       # average overall miss latency in ticks ((Tick/Count))
system.cpu0.icache.demandAvgMissLatency::total 52026.847936                       # average overall miss latency in ticks ((Tick/Count))
system.cpu0.icache.overallAvgMissLatency::switch_cpus0.inst 52026.847936                       # average overall miss latency ((Tick/Count))
system.cpu0.icache.overallAvgMissLatency::total 52026.847936                       # average overall miss latency ((Tick/Count))
system.cpu0.icache.blockedCycles::no_mshrs       140304                       # number of cycles access was blocked (Cycle)
system.cpu0.icache.blockedCycles::no_targets            0                       # number of cycles access was blocked (Cycle)
system.cpu0.icache.blockedCauses::no_mshrs         3468                       # number of times access was blocked (Count)
system.cpu0.icache.blockedCauses::no_targets            0                       # number of times access was blocked (Count)
system.cpu0.icache.avgBlocked::no_mshrs     40.456747                       # average number of cycles each access was blocked ((Cycle/Count))
system.cpu0.icache.avgBlocked::no_targets          nan                       # average number of cycles each access was blocked ((Cycle/Count))
system.cpu0.icache.writebacks::writebacks      3461838                       # number of writebacks (Count)
system.cpu0.icache.writebacks::total          3461838                       # number of writebacks (Count)
system.cpu0.icache.demandMshrHits::switch_cpus0.inst       344233                       # number of demand (read+write) MSHR hits (Count)
system.cpu0.icache.demandMshrHits::total       344233                       # number of demand (read+write) MSHR hits (Count)
system.cpu0.icache.overallMshrHits::switch_cpus0.inst       344233                       # number of overall MSHR hits (Count)
system.cpu0.icache.overallMshrHits::total       344233                       # number of overall MSHR hits (Count)
system.cpu0.icache.demandMshrMisses::switch_cpus0.inst      3462862                       # number of demand (read+write) MSHR misses (Count)
system.cpu0.icache.demandMshrMisses::total      3462862                       # number of demand (read+write) MSHR misses (Count)
system.cpu0.icache.overallMshrMisses::switch_cpus0.inst      3462862                       # number of overall MSHR misses (Count)
system.cpu0.icache.overallMshrMisses::total      3462862                       # number of overall MSHR misses (Count)
system.cpu0.icache.demandMshrMissLatency::switch_cpus0.inst 177248191665                       # number of demand (read+write) MSHR miss ticks (Tick)
system.cpu0.icache.demandMshrMissLatency::total 177248191665                       # number of demand (read+write) MSHR miss ticks (Tick)
system.cpu0.icache.overallMshrMissLatency::switch_cpus0.inst 177248191665                       # number of overall MSHR miss ticks (Tick)
system.cpu0.icache.overallMshrMissLatency::total 177248191665                       # number of overall MSHR miss ticks (Tick)
system.cpu0.icache.demandMshrMissRate::switch_cpus0.inst     0.002009                       # mshr miss ratio for demand accesses (Ratio)
system.cpu0.icache.demandMshrMissRate::total     0.002009                       # mshr miss ratio for demand accesses (Ratio)
system.cpu0.icache.overallMshrMissRate::switch_cpus0.inst     0.002009                       # mshr miss ratio for overall accesses (Ratio)
system.cpu0.icache.overallMshrMissRate::total     0.002009                       # mshr miss ratio for overall accesses (Ratio)
system.cpu0.icache.demandAvgMshrMissLatency::switch_cpus0.inst 51185.462102                       # average overall mshr miss latency ((Tick/Count))
system.cpu0.icache.demandAvgMshrMissLatency::total 51185.462102                       # average overall mshr miss latency ((Tick/Count))
system.cpu0.icache.overallAvgMshrMissLatency::switch_cpus0.inst 51185.462102                       # average overall mshr miss latency ((Tick/Count))
system.cpu0.icache.overallAvgMshrMissLatency::total 51185.462102                       # average overall mshr miss latency ((Tick/Count))
system.cpu0.icache.replacements               3461838                       # number of replacements (Count)
system.cpu0.icache.ReadReq.hits::switch_cpus0.inst   1719822005                       # number of ReadReq hits (Count)
system.cpu0.icache.ReadReq.hits::total     1719822005                       # number of ReadReq hits (Count)
system.cpu0.icache.ReadReq.misses::switch_cpus0.inst      3807095                       # number of ReadReq misses (Count)
system.cpu0.icache.ReadReq.misses::total      3807095                       # number of ReadReq misses (Count)
system.cpu0.icache.ReadReq.missLatency::switch_cpus0.inst 198071152644                       # number of ReadReq miss ticks (Tick)
system.cpu0.icache.ReadReq.missLatency::total 198071152644                       # number of ReadReq miss ticks (Tick)
system.cpu0.icache.ReadReq.accesses::switch_cpus0.inst   1723629100                       # number of ReadReq accesses(hits+misses) (Count)
system.cpu0.icache.ReadReq.accesses::total   1723629100                       # number of ReadReq accesses(hits+misses) (Count)
system.cpu0.icache.ReadReq.missRate::switch_cpus0.inst     0.002209                       # miss rate for ReadReq accesses (Ratio)
system.cpu0.icache.ReadReq.missRate::total     0.002209                       # miss rate for ReadReq accesses (Ratio)
system.cpu0.icache.ReadReq.avgMissLatency::switch_cpus0.inst 52026.847936                       # average ReadReq miss latency ((Tick/Count))
system.cpu0.icache.ReadReq.avgMissLatency::total 52026.847936                       # average ReadReq miss latency ((Tick/Count))
system.cpu0.icache.ReadReq.mshrHits::switch_cpus0.inst       344233                       # number of ReadReq MSHR hits (Count)
system.cpu0.icache.ReadReq.mshrHits::total       344233                       # number of ReadReq MSHR hits (Count)
system.cpu0.icache.ReadReq.mshrMisses::switch_cpus0.inst      3462862                       # number of ReadReq MSHR misses (Count)
system.cpu0.icache.ReadReq.mshrMisses::total      3462862                       # number of ReadReq MSHR misses (Count)
system.cpu0.icache.ReadReq.mshrMissLatency::switch_cpus0.inst 177248191665                       # number of ReadReq MSHR miss ticks (Tick)
system.cpu0.icache.ReadReq.mshrMissLatency::total 177248191665                       # number of ReadReq MSHR miss ticks (Tick)
system.cpu0.icache.ReadReq.mshrMissRate::switch_cpus0.inst     0.002009                       # mshr miss rate for ReadReq accesses (Ratio)
system.cpu0.icache.ReadReq.mshrMissRate::total     0.002009                       # mshr miss rate for ReadReq accesses (Ratio)
system.cpu0.icache.ReadReq.avgMshrMissLatency::switch_cpus0.inst 51185.462102                       # average ReadReq mshr miss latency ((Tick/Count))
system.cpu0.icache.ReadReq.avgMshrMissLatency::total 51185.462102                       # average ReadReq mshr miss latency ((Tick/Count))
system.cpu0.icache.power_state.pwrStateResidencyTicks::UNDEFINED 12025616113500                       # Cumulative time (in ticks) in various power states (Tick)
system.cpu0.icache.tags.tagsInUse          824.771523                       # Average ticks per tags in use ((Tick/Count))
system.cpu0.icache.tags.totalRefs          1723284867                       # Total number of references to valid blocks. (Count)
system.cpu0.icache.tags.sampledRefs           3462862                       # Sample count of references to valid blocks. (Count)
system.cpu0.icache.tags.avgRefs            497.647572                       # Average number of references to valid blocks. ((Count/Count))
system.cpu0.icache.tags.warmupTick       2335636399500                       # The tick when the warmup percentage was hit. (Tick)
system.cpu0.icache.tags.occupancies::switch_cpus0.inst   824.771523                       # Average occupied blocks per tick, per requestor ((Count/Tick))
system.cpu0.icache.tags.avgOccs::switch_cpus0.inst     0.805441                       # Average percentage of cache occupancy ((Ratio/Tick))
system.cpu0.icache.tags.avgOccs::total       0.805441                       # Average percentage of cache occupancy ((Ratio/Tick))
system.cpu0.icache.tags.tagAccesses        6897979262                       # Number of tag accesses (Count)
system.cpu0.icache.tags.dataAccesses       6897979262                       # Number of data accesses (Count)
system.cpu0.icache.tags.power_state.pwrStateResidencyTicks::UNDEFINED 12025616113500                       # Cumulative time (in ticks) in various power states (Tick)
system.cpu0.l2cache.demandHits::switch_cpus0.mmu.dtb_walker      2509490                       # number of demand (read+write) hits (Count)
system.cpu0.l2cache.demandHits::switch_cpus0.mmu.itb_walker        32680                       # number of demand (read+write) hits (Count)
system.cpu0.l2cache.demandHits::switch_cpus0.inst      2065051                       # number of demand (read+write) hits (Count)
system.cpu0.l2cache.demandHits::switch_cpus0.data      8806981                       # number of demand (read+write) hits (Count)
system.cpu0.l2cache.demandHits::total        13414202                       # number of demand (read+write) hits (Count)
system.cpu0.l2cache.overallHits::switch_cpus0.mmu.dtb_walker      2509490                       # number of overall hits (Count)
system.cpu0.l2cache.overallHits::switch_cpus0.mmu.itb_walker        32680                       # number of overall hits (Count)
system.cpu0.l2cache.overallHits::switch_cpus0.inst      2065051                       # number of overall hits (Count)
system.cpu0.l2cache.overallHits::switch_cpus0.data      8806981                       # number of overall hits (Count)
system.cpu0.l2cache.overallHits::total       13414202                       # number of overall hits (Count)
system.cpu0.l2cache.demandMisses::switch_cpus0.mmu.dtb_walker       474400                       # number of demand (read+write) misses (Count)
system.cpu0.l2cache.demandMisses::switch_cpus0.mmu.itb_walker        72348                       # number of demand (read+write) misses (Count)
system.cpu0.l2cache.demandMisses::switch_cpus0.inst      1397811                       # number of demand (read+write) misses (Count)
system.cpu0.l2cache.demandMisses::switch_cpus0.data    165857326                       # number of demand (read+write) misses (Count)
system.cpu0.l2cache.demandMisses::total     167801885                       # number of demand (read+write) misses (Count)
system.cpu0.l2cache.overallMisses::switch_cpus0.mmu.dtb_walker       474400                       # number of overall misses (Count)
system.cpu0.l2cache.overallMisses::switch_cpus0.mmu.itb_walker        72348                       # number of overall misses (Count)
system.cpu0.l2cache.overallMisses::switch_cpus0.inst      1397811                       # number of overall misses (Count)
system.cpu0.l2cache.overallMisses::switch_cpus0.data    165857326                       # number of overall misses (Count)
system.cpu0.l2cache.overallMisses::total    167801885                       # number of overall misses (Count)
system.cpu0.l2cache.demandMissLatency::switch_cpus0.mmu.dtb_walker  55276112418                       # number of demand (read+write) miss ticks (Tick)
system.cpu0.l2cache.demandMissLatency::switch_cpus0.mmu.itb_walker   7800274153                       # number of demand (read+write) miss ticks (Tick)
system.cpu0.l2cache.demandMissLatency::switch_cpus0.inst 150082726500                       # number of demand (read+write) miss ticks (Tick)
system.cpu0.l2cache.demandMissLatency::switch_cpus0.data 18053988263000                       # number of demand (read+write) miss ticks (Tick)
system.cpu0.l2cache.demandMissLatency::total 18267147376071                       # number of demand (read+write) miss ticks (Tick)
system.cpu0.l2cache.overallMissLatency::switch_cpus0.mmu.dtb_walker  55276112418                       # number of overall miss ticks (Tick)
system.cpu0.l2cache.overallMissLatency::switch_cpus0.mmu.itb_walker   7800274153                       # number of overall miss ticks (Tick)
system.cpu0.l2cache.overallMissLatency::switch_cpus0.inst 150082726500                       # number of overall miss ticks (Tick)
system.cpu0.l2cache.overallMissLatency::switch_cpus0.data 18053988263000                       # number of overall miss ticks (Tick)
system.cpu0.l2cache.overallMissLatency::total 18267147376071                       # number of overall miss ticks (Tick)
system.cpu0.l2cache.demandAccesses::switch_cpus0.mmu.dtb_walker      2983890                       # number of demand (read+write) accesses (Count)
system.cpu0.l2cache.demandAccesses::switch_cpus0.mmu.itb_walker       105028                       # number of demand (read+write) accesses (Count)
system.cpu0.l2cache.demandAccesses::switch_cpus0.inst      3462862                       # number of demand (read+write) accesses (Count)
system.cpu0.l2cache.demandAccesses::switch_cpus0.data    174664307                       # number of demand (read+write) accesses (Count)
system.cpu0.l2cache.demandAccesses::total    181216087                       # number of demand (read+write) accesses (Count)
system.cpu0.l2cache.overallAccesses::switch_cpus0.mmu.dtb_walker      2983890                       # number of overall (read+write) accesses (Count)
system.cpu0.l2cache.overallAccesses::switch_cpus0.mmu.itb_walker       105028                       # number of overall (read+write) accesses (Count)
system.cpu0.l2cache.overallAccesses::switch_cpus0.inst      3462862                       # number of overall (read+write) accesses (Count)
system.cpu0.l2cache.overallAccesses::switch_cpus0.data    174664307                       # number of overall (read+write) accesses (Count)
system.cpu0.l2cache.overallAccesses::total    181216087                       # number of overall (read+write) accesses (Count)
system.cpu0.l2cache.demandMissRate::switch_cpus0.mmu.dtb_walker     0.158987                       # miss rate for demand accesses (Ratio)
system.cpu0.l2cache.demandMissRate::switch_cpus0.mmu.itb_walker     0.688845                       # miss rate for demand accesses (Ratio)
system.cpu0.l2cache.demandMissRate::switch_cpus0.inst     0.403658                       # miss rate for demand accesses (Ratio)
system.cpu0.l2cache.demandMissRate::switch_cpus0.data     0.949578                       # miss rate for demand accesses (Ratio)
system.cpu0.l2cache.demandMissRate::total     0.925977                       # miss rate for demand accesses (Ratio)
system.cpu0.l2cache.overallMissRate::switch_cpus0.mmu.dtb_walker     0.158987                       # miss rate for overall accesses (Ratio)
system.cpu0.l2cache.overallMissRate::switch_cpus0.mmu.itb_walker     0.688845                       # miss rate for overall accesses (Ratio)
system.cpu0.l2cache.overallMissRate::switch_cpus0.inst     0.403658                       # miss rate for overall accesses (Ratio)
system.cpu0.l2cache.overallMissRate::switch_cpus0.data     0.949578                       # miss rate for overall accesses (Ratio)
system.cpu0.l2cache.overallMissRate::total     0.925977                       # miss rate for overall accesses (Ratio)
system.cpu0.l2cache.demandAvgMissLatency::switch_cpus0.mmu.dtb_walker 116517.943546                       # average overall miss latency in ticks ((Tick/Count))
system.cpu0.l2cache.demandAvgMissLatency::switch_cpus0.mmu.itb_walker 107816.030201                       # average overall miss latency in ticks ((Tick/Count))
system.cpu0.l2cache.demandAvgMissLatency::switch_cpus0.inst 107369.827895                       # average overall miss latency in ticks ((Tick/Count))
system.cpu0.l2cache.demandAvgMissLatency::switch_cpus0.data 108852.522215                       # average overall miss latency in ticks ((Tick/Count))
system.cpu0.l2cache.demandAvgMissLatency::total 108861.395544                       # average overall miss latency in ticks ((Tick/Count))
system.cpu0.l2cache.overallAvgMissLatency::switch_cpus0.mmu.dtb_walker 116517.943546                       # average overall miss latency ((Tick/Count))
system.cpu0.l2cache.overallAvgMissLatency::switch_cpus0.mmu.itb_walker 107816.030201                       # average overall miss latency ((Tick/Count))
system.cpu0.l2cache.overallAvgMissLatency::switch_cpus0.inst 107369.827895                       # average overall miss latency ((Tick/Count))
system.cpu0.l2cache.overallAvgMissLatency::switch_cpus0.data 108852.522215                       # average overall miss latency ((Tick/Count))
system.cpu0.l2cache.overallAvgMissLatency::total 108861.395544                       # average overall miss latency ((Tick/Count))
system.cpu0.l2cache.blockedCycles::no_mshrs            0                       # number of cycles access was blocked (Cycle)
system.cpu0.l2cache.blockedCycles::no_targets            0                       # number of cycles access was blocked (Cycle)
system.cpu0.l2cache.blockedCauses::no_mshrs            0                       # number of times access was blocked (Count)
system.cpu0.l2cache.blockedCauses::no_targets            0                       # number of times access was blocked (Count)
system.cpu0.l2cache.avgBlocked::no_mshrs          nan                       # average number of cycles each access was blocked ((Cycle/Count))
system.cpu0.l2cache.avgBlocked::no_targets          nan                       # average number of cycles each access was blocked ((Cycle/Count))
system.cpu0.l2cache.writebacks::writebacks     56304904                       # number of writebacks (Count)
system.cpu0.l2cache.writebacks::total        56304904                       # number of writebacks (Count)
system.cpu0.l2cache.demandMshrHits::switch_cpus0.mmu.dtb_walker            2                       # number of demand (read+write) MSHR hits (Count)
system.cpu0.l2cache.demandMshrHits::switch_cpus0.mmu.itb_walker           17                       # number of demand (read+write) MSHR hits (Count)
system.cpu0.l2cache.demandMshrHits::switch_cpus0.data            1                       # number of demand (read+write) MSHR hits (Count)
system.cpu0.l2cache.demandMshrHits::total           20                       # number of demand (read+write) MSHR hits (Count)
system.cpu0.l2cache.overallMshrHits::switch_cpus0.mmu.dtb_walker            2                       # number of overall MSHR hits (Count)
system.cpu0.l2cache.overallMshrHits::switch_cpus0.mmu.itb_walker           17                       # number of overall MSHR hits (Count)
system.cpu0.l2cache.overallMshrHits::switch_cpus0.data            1                       # number of overall MSHR hits (Count)
system.cpu0.l2cache.overallMshrHits::total           20                       # number of overall MSHR hits (Count)
system.cpu0.l2cache.demandMshrMisses::switch_cpus0.mmu.dtb_walker       474398                       # number of demand (read+write) MSHR misses (Count)
system.cpu0.l2cache.demandMshrMisses::switch_cpus0.mmu.itb_walker        72331                       # number of demand (read+write) MSHR misses (Count)
system.cpu0.l2cache.demandMshrMisses::switch_cpus0.inst      1397811                       # number of demand (read+write) MSHR misses (Count)
system.cpu0.l2cache.demandMshrMisses::switch_cpus0.data    165857325                       # number of demand (read+write) MSHR misses (Count)
system.cpu0.l2cache.demandMshrMisses::total    167801865                       # number of demand (read+write) MSHR misses (Count)
system.cpu0.l2cache.overallMshrMisses::switch_cpus0.mmu.dtb_walker       474398                       # number of overall MSHR misses (Count)
system.cpu0.l2cache.overallMshrMisses::switch_cpus0.mmu.itb_walker        72331                       # number of overall MSHR misses (Count)
system.cpu0.l2cache.overallMshrMisses::switch_cpus0.inst      1397811                       # number of overall MSHR misses (Count)
system.cpu0.l2cache.overallMshrMisses::switch_cpus0.data    165857325                       # number of overall MSHR misses (Count)
system.cpu0.l2cache.overallMshrMisses::total    167801865                       # number of overall MSHR misses (Count)
system.cpu0.l2cache.overallMshrUncacheable::switch_cpus0.data       120950                       # number of overall MSHR uncacheable misses (Count)
system.cpu0.l2cache.overallMshrUncacheable::total       120950                       # number of overall MSHR uncacheable misses (Count)
system.cpu0.l2cache.demandMshrMissLatency::switch_cpus0.mmu.dtb_walker  50531870419                       # number of demand (read+write) MSHR miss ticks (Tick)
system.cpu0.l2cache.demandMshrMissLatency::switch_cpus0.mmu.itb_walker   7075027667                       # number of demand (read+write) MSHR miss ticks (Tick)
system.cpu0.l2cache.demandMshrMissLatency::switch_cpus0.inst 136104616500                       # number of demand (read+write) MSHR miss ticks (Tick)
system.cpu0.l2cache.demandMshrMissLatency::switch_cpus0.data 16395414947500                       # number of demand (read+write) MSHR miss ticks (Tick)
system.cpu0.l2cache.demandMshrMissLatency::total 16589126462086                       # number of demand (read+write) MSHR miss ticks (Tick)
system.cpu0.l2cache.overallMshrMissLatency::switch_cpus0.mmu.dtb_walker  50531870419                       # number of overall MSHR miss ticks (Tick)
system.cpu0.l2cache.overallMshrMissLatency::switch_cpus0.mmu.itb_walker   7075027667                       # number of overall MSHR miss ticks (Tick)
system.cpu0.l2cache.overallMshrMissLatency::switch_cpus0.inst 136104616500                       # number of overall MSHR miss ticks (Tick)
system.cpu0.l2cache.overallMshrMissLatency::switch_cpus0.data 16395414947500                       # number of overall MSHR miss ticks (Tick)
system.cpu0.l2cache.overallMshrMissLatency::total 16589126462086                       # number of overall MSHR miss ticks (Tick)
system.cpu0.l2cache.overallMshrUncacheableLatency::switch_cpus0.data   5478523000                       # number of overall MSHR uncacheable ticks (Tick)
system.cpu0.l2cache.overallMshrUncacheableLatency::total   5478523000                       # number of overall MSHR uncacheable ticks (Tick)
system.cpu0.l2cache.demandMshrMissRate::switch_cpus0.mmu.dtb_walker     0.158986                       # mshr miss ratio for demand accesses (Ratio)
system.cpu0.l2cache.demandMshrMissRate::switch_cpus0.mmu.itb_walker     0.688683                       # mshr miss ratio for demand accesses (Ratio)
system.cpu0.l2cache.demandMshrMissRate::switch_cpus0.inst     0.403658                       # mshr miss ratio for demand accesses (Ratio)
system.cpu0.l2cache.demandMshrMissRate::switch_cpus0.data     0.949578                       # mshr miss ratio for demand accesses (Ratio)
system.cpu0.l2cache.demandMshrMissRate::total     0.925977                       # mshr miss ratio for demand accesses (Ratio)
system.cpu0.l2cache.overallMshrMissRate::switch_cpus0.mmu.dtb_walker     0.158986                       # mshr miss ratio for overall accesses (Ratio)
system.cpu0.l2cache.overallMshrMissRate::switch_cpus0.mmu.itb_walker     0.688683                       # mshr miss ratio for overall accesses (Ratio)
system.cpu0.l2cache.overallMshrMissRate::switch_cpus0.inst     0.403658                       # mshr miss ratio for overall accesses (Ratio)
system.cpu0.l2cache.overallMshrMissRate::switch_cpus0.data     0.949578                       # mshr miss ratio for overall accesses (Ratio)
system.cpu0.l2cache.overallMshrMissRate::total     0.925977                       # mshr miss ratio for overall accesses (Ratio)
system.cpu0.l2cache.demandAvgMshrMissLatency::switch_cpus0.mmu.dtb_walker 106517.882493                       # average overall mshr miss latency ((Tick/Count))
system.cpu0.l2cache.demandAvgMshrMissLatency::switch_cpus0.mmu.itb_walker 97814.597711                       # average overall mshr miss latency ((Tick/Count))
system.cpu0.l2cache.demandAvgMshrMissLatency::switch_cpus0.inst 97369.827895                       # average overall mshr miss latency ((Tick/Count))
system.cpu0.l2cache.demandAvgMshrMissLatency::switch_cpus0.data 98852.522477                       # average overall mshr miss latency ((Tick/Count))
system.cpu0.l2cache.demandAvgMshrMissLatency::total 98861.395027                       # average overall mshr miss latency ((Tick/Count))
system.cpu0.l2cache.overallAvgMshrMissLatency::switch_cpus0.mmu.dtb_walker 106517.882493                       # average overall mshr miss latency ((Tick/Count))
system.cpu0.l2cache.overallAvgMshrMissLatency::switch_cpus0.mmu.itb_walker 97814.597711                       # average overall mshr miss latency ((Tick/Count))
system.cpu0.l2cache.overallAvgMshrMissLatency::switch_cpus0.inst 97369.827895                       # average overall mshr miss latency ((Tick/Count))
system.cpu0.l2cache.overallAvgMshrMissLatency::switch_cpus0.data 98852.522477                       # average overall mshr miss latency ((Tick/Count))
system.cpu0.l2cache.overallAvgMshrMissLatency::total 98861.395027                       # average overall mshr miss latency ((Tick/Count))
system.cpu0.l2cache.overallAvgMshrUncacheableLatency::switch_cpus0.data 45295.766846                       # average overall mshr uncacheable latency ((Tick/Count))
system.cpu0.l2cache.overallAvgMshrUncacheableLatency::total 45295.766846                       # average overall mshr uncacheable latency ((Tick/Count))
system.cpu0.l2cache.replacements            221074828                       # number of replacements (Count)
system.cpu0.l2cache.CleanEvict.mshrMisses::writebacks         2822                       # number of CleanEvict MSHR misses (Count)
system.cpu0.l2cache.CleanEvict.mshrMisses::total         2822                       # number of CleanEvict MSHR misses (Count)
system.cpu0.l2cache.CleanEvict.mshrMissRate::writebacks          inf                       # mshr miss rate for CleanEvict accesses (Ratio)
system.cpu0.l2cache.CleanEvict.mshrMissRate::total          inf                       # mshr miss rate for CleanEvict accesses (Ratio)
system.cpu0.l2cache.InvalidateReq.hits::switch_cpus0.data       694289                       # number of InvalidateReq hits (Count)
system.cpu0.l2cache.InvalidateReq.hits::total       694289                       # number of InvalidateReq hits (Count)
system.cpu0.l2cache.InvalidateReq.misses::switch_cpus0.data     51638720                       # number of InvalidateReq misses (Count)
system.cpu0.l2cache.InvalidateReq.misses::total     51638720                       # number of InvalidateReq misses (Count)
system.cpu0.l2cache.InvalidateReq.missLatency::switch_cpus0.data      2625000                       # number of InvalidateReq miss ticks (Tick)
system.cpu0.l2cache.InvalidateReq.missLatency::total      2625000                       # number of InvalidateReq miss ticks (Tick)
system.cpu0.l2cache.InvalidateReq.accesses::switch_cpus0.data     52333009                       # number of InvalidateReq accesses(hits+misses) (Count)
system.cpu0.l2cache.InvalidateReq.accesses::total     52333009                       # number of InvalidateReq accesses(hits+misses) (Count)
system.cpu0.l2cache.InvalidateReq.missRate::switch_cpus0.data     0.986733                       # miss rate for InvalidateReq accesses (Ratio)
system.cpu0.l2cache.InvalidateReq.missRate::total     0.986733                       # miss rate for InvalidateReq accesses (Ratio)
system.cpu0.l2cache.InvalidateReq.avgMissLatency::switch_cpus0.data     0.050834                       # average InvalidateReq miss latency ((Tick/Count))
system.cpu0.l2cache.InvalidateReq.avgMissLatency::total     0.050834                       # average InvalidateReq miss latency ((Tick/Count))
system.cpu0.l2cache.InvalidateReq.mshrMisses::switch_cpus0.data     51638720                       # number of InvalidateReq MSHR misses (Count)
system.cpu0.l2cache.InvalidateReq.mshrMisses::total     51638720                       # number of InvalidateReq MSHR misses (Count)
system.cpu0.l2cache.InvalidateReq.mshrMissLatency::switch_cpus0.data 2316509302500                       # number of InvalidateReq MSHR miss ticks (Tick)
system.cpu0.l2cache.InvalidateReq.mshrMissLatency::total 2316509302500                       # number of InvalidateReq MSHR miss ticks (Tick)
system.cpu0.l2cache.InvalidateReq.mshrMissRate::switch_cpus0.data     0.986733                       # mshr miss rate for InvalidateReq accesses (Ratio)
system.cpu0.l2cache.InvalidateReq.mshrMissRate::total     0.986733                       # mshr miss rate for InvalidateReq accesses (Ratio)
system.cpu0.l2cache.InvalidateReq.avgMshrMissLatency::switch_cpus0.data 44859.928800                       # average InvalidateReq mshr miss latency ((Tick/Count))
system.cpu0.l2cache.InvalidateReq.avgMshrMissLatency::total 44859.928800                       # average InvalidateReq mshr miss latency ((Tick/Count))
system.cpu0.l2cache.ReadCleanReq.hits::switch_cpus0.inst      2065051                       # number of ReadCleanReq hits (Count)
system.cpu0.l2cache.ReadCleanReq.hits::total      2065051                       # number of ReadCleanReq hits (Count)
system.cpu0.l2cache.ReadCleanReq.misses::switch_cpus0.inst      1397811                       # number of ReadCleanReq misses (Count)
system.cpu0.l2cache.ReadCleanReq.misses::total      1397811                       # number of ReadCleanReq misses (Count)
system.cpu0.l2cache.ReadCleanReq.missLatency::switch_cpus0.inst 150082726500                       # number of ReadCleanReq miss ticks (Tick)
system.cpu0.l2cache.ReadCleanReq.missLatency::total 150082726500                       # number of ReadCleanReq miss ticks (Tick)
system.cpu0.l2cache.ReadCleanReq.accesses::switch_cpus0.inst      3462862                       # number of ReadCleanReq accesses(hits+misses) (Count)
system.cpu0.l2cache.ReadCleanReq.accesses::total      3462862                       # number of ReadCleanReq accesses(hits+misses) (Count)
system.cpu0.l2cache.ReadCleanReq.missRate::switch_cpus0.inst     0.403658                       # miss rate for ReadCleanReq accesses (Ratio)
system.cpu0.l2cache.ReadCleanReq.missRate::total     0.403658                       # miss rate for ReadCleanReq accesses (Ratio)
system.cpu0.l2cache.ReadCleanReq.avgMissLatency::switch_cpus0.inst 107369.827895                       # average ReadCleanReq miss latency ((Tick/Count))
system.cpu0.l2cache.ReadCleanReq.avgMissLatency::total 107369.827895                       # average ReadCleanReq miss latency ((Tick/Count))
system.cpu0.l2cache.ReadCleanReq.mshrMisses::switch_cpus0.inst      1397811                       # number of ReadCleanReq MSHR misses (Count)
system.cpu0.l2cache.ReadCleanReq.mshrMisses::total      1397811                       # number of ReadCleanReq MSHR misses (Count)
system.cpu0.l2cache.ReadCleanReq.mshrMissLatency::switch_cpus0.inst 136104616500                       # number of ReadCleanReq MSHR miss ticks (Tick)
system.cpu0.l2cache.ReadCleanReq.mshrMissLatency::total 136104616500                       # number of ReadCleanReq MSHR miss ticks (Tick)
system.cpu0.l2cache.ReadCleanReq.mshrMissRate::switch_cpus0.inst     0.403658                       # mshr miss rate for ReadCleanReq accesses (Ratio)
system.cpu0.l2cache.ReadCleanReq.mshrMissRate::total     0.403658                       # mshr miss rate for ReadCleanReq accesses (Ratio)
system.cpu0.l2cache.ReadCleanReq.avgMshrMissLatency::switch_cpus0.inst 97369.827895                       # average ReadCleanReq mshr miss latency ((Tick/Count))
system.cpu0.l2cache.ReadCleanReq.avgMshrMissLatency::total 97369.827895                       # average ReadCleanReq mshr miss latency ((Tick/Count))
system.cpu0.l2cache.ReadExReq.hits::switch_cpus0.data      7420640                       # number of ReadExReq hits (Count)
system.cpu0.l2cache.ReadExReq.hits::total      7420640                       # number of ReadExReq hits (Count)
system.cpu0.l2cache.ReadExReq.misses::switch_cpus0.data      2921331                       # number of ReadExReq misses (Count)
system.cpu0.l2cache.ReadExReq.misses::total      2921331                       # number of ReadExReq misses (Count)
system.cpu0.l2cache.ReadExReq.missLatency::switch_cpus0.data 308492602500                       # number of ReadExReq miss ticks (Tick)
system.cpu0.l2cache.ReadExReq.missLatency::total 308492602500                       # number of ReadExReq miss ticks (Tick)
system.cpu0.l2cache.ReadExReq.accesses::switch_cpus0.data     10341971                       # number of ReadExReq accesses(hits+misses) (Count)
system.cpu0.l2cache.ReadExReq.accesses::total     10341971                       # number of ReadExReq accesses(hits+misses) (Count)
system.cpu0.l2cache.ReadExReq.missRate::switch_cpus0.data     0.282473                       # miss rate for ReadExReq accesses (Ratio)
system.cpu0.l2cache.ReadExReq.missRate::total     0.282473                       # miss rate for ReadExReq accesses (Ratio)
system.cpu0.l2cache.ReadExReq.avgMissLatency::switch_cpus0.data 105600.016739                       # average ReadExReq miss latency ((Tick/Count))
system.cpu0.l2cache.ReadExReq.avgMissLatency::total 105600.016739                       # average ReadExReq miss latency ((Tick/Count))
system.cpu0.l2cache.ReadExReq.mshrMisses::switch_cpus0.data      2921331                       # number of ReadExReq MSHR misses (Count)
system.cpu0.l2cache.ReadExReq.mshrMisses::total      2921331                       # number of ReadExReq MSHR misses (Count)
system.cpu0.l2cache.ReadExReq.mshrMissLatency::switch_cpus0.data 279279282500                       # number of ReadExReq MSHR miss ticks (Tick)
system.cpu0.l2cache.ReadExReq.mshrMissLatency::total 279279282500                       # number of ReadExReq MSHR miss ticks (Tick)
system.cpu0.l2cache.ReadExReq.mshrMissRate::switch_cpus0.data     0.282473                       # mshr miss rate for ReadExReq accesses (Ratio)
system.cpu0.l2cache.ReadExReq.mshrMissRate::total     0.282473                       # mshr miss rate for ReadExReq accesses (Ratio)
system.cpu0.l2cache.ReadExReq.avgMshrMissLatency::switch_cpus0.data 95600.013316                       # average ReadExReq mshr miss latency ((Tick/Count))
system.cpu0.l2cache.ReadExReq.avgMshrMissLatency::total 95600.013316                       # average ReadExReq mshr miss latency ((Tick/Count))
system.cpu0.l2cache.ReadReq.hits::switch_cpus0.mmu.dtb_walker      2509490                       # number of ReadReq hits (Count)
system.cpu0.l2cache.ReadReq.hits::switch_cpus0.mmu.itb_walker        32680                       # number of ReadReq hits (Count)
system.cpu0.l2cache.ReadReq.hits::total       2542170                       # number of ReadReq hits (Count)
system.cpu0.l2cache.ReadReq.misses::switch_cpus0.mmu.dtb_walker       474400                       # number of ReadReq misses (Count)
system.cpu0.l2cache.ReadReq.misses::switch_cpus0.mmu.itb_walker        72348                       # number of ReadReq misses (Count)
system.cpu0.l2cache.ReadReq.misses::total       546748                       # number of ReadReq misses (Count)
system.cpu0.l2cache.ReadReq.missLatency::switch_cpus0.mmu.dtb_walker  55276112418                       # number of ReadReq miss ticks (Tick)
system.cpu0.l2cache.ReadReq.missLatency::switch_cpus0.mmu.itb_walker   7800274153                       # number of ReadReq miss ticks (Tick)
system.cpu0.l2cache.ReadReq.missLatency::total  63076386571                       # number of ReadReq miss ticks (Tick)
system.cpu0.l2cache.ReadReq.accesses::switch_cpus0.mmu.dtb_walker      2983890                       # number of ReadReq accesses(hits+misses) (Count)
system.cpu0.l2cache.ReadReq.accesses::switch_cpus0.mmu.itb_walker       105028                       # number of ReadReq accesses(hits+misses) (Count)
system.cpu0.l2cache.ReadReq.accesses::total      3088918                       # number of ReadReq accesses(hits+misses) (Count)
system.cpu0.l2cache.ReadReq.missRate::switch_cpus0.mmu.dtb_walker     0.158987                       # miss rate for ReadReq accesses (Ratio)
system.cpu0.l2cache.ReadReq.missRate::switch_cpus0.mmu.itb_walker     0.688845                       # miss rate for ReadReq accesses (Ratio)
system.cpu0.l2cache.ReadReq.missRate::total     0.177003                       # miss rate for ReadReq accesses (Ratio)
system.cpu0.l2cache.ReadReq.avgMissLatency::switch_cpus0.mmu.dtb_walker 116517.943546                       # average ReadReq miss latency ((Tick/Count))
system.cpu0.l2cache.ReadReq.avgMissLatency::switch_cpus0.mmu.itb_walker 107816.030201                       # average ReadReq miss latency ((Tick/Count))
system.cpu0.l2cache.ReadReq.avgMissLatency::total 115366.469692                       # average ReadReq miss latency ((Tick/Count))
system.cpu0.l2cache.ReadReq.mshrHits::switch_cpus0.mmu.dtb_walker            2                       # number of ReadReq MSHR hits (Count)
system.cpu0.l2cache.ReadReq.mshrHits::switch_cpus0.mmu.itb_walker           17                       # number of ReadReq MSHR hits (Count)
system.cpu0.l2cache.ReadReq.mshrHits::total           19                       # number of ReadReq MSHR hits (Count)
system.cpu0.l2cache.ReadReq.mshrMisses::switch_cpus0.mmu.dtb_walker       474398                       # number of ReadReq MSHR misses (Count)
system.cpu0.l2cache.ReadReq.mshrMisses::switch_cpus0.mmu.itb_walker        72331                       # number of ReadReq MSHR misses (Count)
system.cpu0.l2cache.ReadReq.mshrMisses::total       546729                       # number of ReadReq MSHR misses (Count)
system.cpu0.l2cache.ReadReq.mshrUncacheable::switch_cpus0.data       105712                       # number of ReadReq MSHR uncacheable (Count)
system.cpu0.l2cache.ReadReq.mshrUncacheable::total       105712                       # number of ReadReq MSHR uncacheable (Count)
system.cpu0.l2cache.ReadReq.mshrMissLatency::switch_cpus0.mmu.dtb_walker  50531870419                       # number of ReadReq MSHR miss ticks (Tick)
system.cpu0.l2cache.ReadReq.mshrMissLatency::switch_cpus0.mmu.itb_walker   7075027667                       # number of ReadReq MSHR miss ticks (Tick)
system.cpu0.l2cache.ReadReq.mshrMissLatency::total  57606898086                       # number of ReadReq MSHR miss ticks (Tick)
system.cpu0.l2cache.ReadReq.mshrUncacheableLatency::switch_cpus0.data   5478523000                       # number of ReadReq MSHR uncacheable ticks (Tick)
system.cpu0.l2cache.ReadReq.mshrUncacheableLatency::total   5478523000                       # number of ReadReq MSHR uncacheable ticks (Tick)
system.cpu0.l2cache.ReadReq.mshrMissRate::switch_cpus0.mmu.dtb_walker     0.158986                       # mshr miss rate for ReadReq accesses (Ratio)
system.cpu0.l2cache.ReadReq.mshrMissRate::switch_cpus0.mmu.itb_walker     0.688683                       # mshr miss rate for ReadReq accesses (Ratio)
system.cpu0.l2cache.ReadReq.mshrMissRate::total     0.176997                       # mshr miss rate for ReadReq accesses (Ratio)
system.cpu0.l2cache.ReadReq.avgMshrMissLatency::switch_cpus0.mmu.dtb_walker 106517.882493                       # average ReadReq mshr miss latency ((Tick/Count))
system.cpu0.l2cache.ReadReq.avgMshrMissLatency::switch_cpus0.mmu.itb_walker 97814.597711                       # average ReadReq mshr miss latency ((Tick/Count))
system.cpu0.l2cache.ReadReq.avgMshrMissLatency::total 105366.457762                       # average ReadReq mshr miss latency ((Tick/Count))
system.cpu0.l2cache.ReadReq.avgMshrUncacheableLatency::switch_cpus0.data 51824.986756                       # average ReadReq mshr uncacheable latency ((Tick/Count))
system.cpu0.l2cache.ReadReq.avgMshrUncacheableLatency::total 51824.986756                       # average ReadReq mshr uncacheable latency ((Tick/Count))
system.cpu0.l2cache.ReadSharedReq.hits::switch_cpus0.data      1386341                       # number of ReadSharedReq hits (Count)
system.cpu0.l2cache.ReadSharedReq.hits::total      1386341                       # number of ReadSharedReq hits (Count)
system.cpu0.l2cache.ReadSharedReq.misses::switch_cpus0.data    162935995                       # number of ReadSharedReq misses (Count)
system.cpu0.l2cache.ReadSharedReq.misses::total    162935995                       # number of ReadSharedReq misses (Count)
system.cpu0.l2cache.ReadSharedReq.missLatency::switch_cpus0.data 17745495660500                       # number of ReadSharedReq miss ticks (Tick)
system.cpu0.l2cache.ReadSharedReq.missLatency::total 17745495660500                       # number of ReadSharedReq miss ticks (Tick)
system.cpu0.l2cache.ReadSharedReq.accesses::switch_cpus0.data    164322336                       # number of ReadSharedReq accesses(hits+misses) (Count)
[...]
system.switch_cpus1.mmu.itb_walker.requestOrigin::total         1767                       # Table walker requests started/completed, data/inst (Count)
system.switch_cpus1.mmu.itb_walker.power_state.pwrStateResidencyTicks::UNDEFINED 12025616113500                       # Cumulative time (in ticks) in various power states (Tick)
system.switch_cpus1.mmu.l2_shared.partialHits        10402                       # partial translation hits (Count)
system.switch_cpus1.mmu.l2_shared.instHits         1235                       # Inst hits (Count)
system.switch_cpus1.mmu.l2_shared.instMisses           96                       # Inst misses (Count)
system.switch_cpus1.mmu.l2_shared.readHits         8796                       # Read hits (Count)
system.switch_cpus1.mmu.l2_shared.readMisses        10377                       # Read misses (Count)
system.switch_cpus1.mmu.l2_shared.writeHits         5485                       # Write hits (Count)
system.switch_cpus1.mmu.l2_shared.writeMisses         1534                       # Write misses (Count)
system.switch_cpus1.mmu.l2_shared.inserts         3133                       # Number of times an entry is inserted into the TLB (Count)
system.switch_cpus1.mmu.l2_shared.flushTlb            2                       # Number of times complete TLB was flushed (Count)
system.switch_cpus1.mmu.l2_shared.flushTlbMva            0                       # Number of times TLB was flushed by MVA (Count)
system.switch_cpus1.mmu.l2_shared.flushTlbMvaAsid         1029                       # Number of times TLB was flushed by MVA & ASID (Count)
system.switch_cpus1.mmu.l2_shared.flushTlbAsid           14                       # Number of times TLB was flushed by ASID (Count)
system.switch_cpus1.mmu.l2_shared.flushedEntries         2970                       # Number of entries that have been flushed from TLB (Count)
system.switch_cpus1.mmu.l2_shared.readAccesses        19173                       # Read accesses (Count)
system.switch_cpus1.mmu.l2_shared.writeAccesses         7019                       # Write accesses (Count)
system.switch_cpus1.mmu.l2_shared.instAccesses         1331                       # Inst accesses (Count)
system.switch_cpus1.mmu.l2_shared.hits          15516                       # Total TLB (inst and data) hits (Count)
system.switch_cpus1.mmu.l2_shared.misses        12007                       # Total TLB (inst and data) misses (Count)
system.switch_cpus1.mmu.l2_shared.accesses        27523                       # Total TLB (inst and data) accesses (Count)
system.switch_cpus1.mmu.stage2_dtb.readHits            0                       # Read hits (Count)
system.switch_cpus1.mmu.stage2_dtb.readMisses            0                       # Read misses (Count)
system.switch_cpus1.mmu.stage2_dtb.writeHits            0                       # Write hits (Count)
system.switch_cpus1.mmu.stage2_dtb.writeMisses            0                       # Write misses (Count)
system.switch_cpus1.mmu.stage2_dtb.inserts            0                       # Number of times an entry is inserted into the TLB (Count)
system.switch_cpus1.mmu.stage2_dtb.flushTlb            2                       # Number of times complete TLB was flushed (Count)
system.switch_cpus1.mmu.stage2_dtb.flushTlbMva            0                       # Number of times TLB was flushed by MVA (Count)
system.switch_cpus1.mmu.stage2_dtb.flushTlbMvaAsid            0                       # Number of times TLB was flushed by MVA & ASID (Count)
system.switch_cpus1.mmu.stage2_dtb.flushTlbAsid            0                       # Number of times TLB was flushed by ASID (Count)
system.switch_cpus1.mmu.stage2_dtb.flushedEntries            0                       # Number of entries that have been flushed from TLB (Count)
system.switch_cpus1.mmu.stage2_dtb.readAccesses            0                       # Read accesses (Count)
system.switch_cpus1.mmu.stage2_dtb.writeAccesses            0                       # Write accesses (Count)
system.switch_cpus1.mmu.stage2_dtb.hits             0                       # Total TLB (inst and data) hits (Count)
system.switch_cpus1.mmu.stage2_dtb.misses            0                       # Total TLB (inst and data) misses (Count)
system.switch_cpus1.mmu.stage2_dtb.accesses            0                       # Total TLB (inst and data) accesses (Count)
system.switch_cpus1.mmu.stage2_dtb_walker.walks            0                       # Table walker walks requested (Count)
system.switch_cpus1.mmu.stage2_dtb_walker.requestOrigin_Requested::Data            0                       # Table walker requests started/completed, data/inst (Count)
system.switch_cpus1.mmu.stage2_dtb_walker.requestOrigin_Requested::Inst            0                       # Table walker requests started/completed, data/inst (Count)
system.switch_cpus1.mmu.stage2_dtb_walker.requestOrigin_Requested::total            0                       # Table walker requests started/completed, data/inst (Count)
system.switch_cpus1.mmu.stage2_dtb_walker.requestOrigin_Completed::Data            0                       # Table walker requests started/completed, data/inst (Count)
system.switch_cpus1.mmu.stage2_dtb_walker.requestOrigin_Completed::Inst            0                       # Table walker requests started/completed, data/inst (Count)
system.switch_cpus1.mmu.stage2_dtb_walker.requestOrigin_Completed::total            0                       # Table walker requests started/completed, data/inst (Count)
system.switch_cpus1.mmu.stage2_dtb_walker.requestOrigin::total            0                       # Table walker requests started/completed, data/inst (Count)
system.switch_cpus1.mmu.stage2_dtb_walker.power_state.pwrStateResidencyTicks::UNDEFINED 12025616113500                       # Cumulative time (in ticks) in various power states (Tick)
system.switch_cpus1.mmu.stage2_itb.instHits            0                       # Inst hits (Count)
system.switch_cpus1.mmu.stage2_itb.instMisses            0                       # Inst misses (Count)
system.switch_cpus1.mmu.stage2_itb.inserts            0                       # Number of times an entry is inserted into the TLB (Count)
system.switch_cpus1.mmu.stage2_itb.flushTlb            2                       # Number of times complete TLB was flushed (Count)
system.switch_cpus1.mmu.stage2_itb.flushTlbMva            0                       # Number of times TLB was flushed by MVA (Count)
system.switch_cpus1.mmu.stage2_itb.flushTlbMvaAsid            0                       # Number of times TLB was flushed by MVA & ASID (Count)
system.switch_cpus1.mmu.stage2_itb.flushTlbAsid            0                       # Number of times TLB was flushed by ASID (Count)
system.switch_cpus1.mmu.stage2_itb.flushedEntries            0                       # Number of entries that have been flushed from TLB (Count)
system.switch_cpus1.mmu.stage2_itb.instAccesses            0                       # Inst accesses (Count)
system.switch_cpus1.mmu.stage2_itb.hits             0                       # Total TLB (inst and data) hits (Count)
system.switch_cpus1.mmu.stage2_itb.misses            0                       # Total TLB (inst and data) misses (Count)
system.switch_cpus1.mmu.stage2_itb.accesses            0                       # Total TLB (inst and data) accesses (Count)
system.switch_cpus1.mmu.stage2_itb_walker.walks            0                       # Table walker walks requested (Count)
system.switch_cpus1.mmu.stage2_itb_walker.requestOrigin_Requested::Data            0                       # Table walker requests started/completed, data/inst (Count)
system.switch_cpus1.mmu.stage2_itb_walker.requestOrigin_Requested::Inst            0                       # Table walker requests started/completed, data/inst (Count)
system.switch_cpus1.mmu.stage2_itb_walker.requestOrigin_Requested::total            0                       # Table walker requests started/completed, data/inst (Count)
system.switch_cpus1.mmu.stage2_itb_walker.requestOrigin_Completed::Data            0                       # Table walker requests started/completed, data/inst (Count)
system.switch_cpus1.mmu.stage2_itb_walker.requestOrigin_Completed::Inst            0                       # Table walker requests started/completed, data/inst (Count)
system.switch_cpus1.mmu.stage2_itb_walker.requestOrigin_Completed::total            0                       # Table walker requests started/completed, data/inst (Count)
system.switch_cpus1.mmu.stage2_itb_walker.requestOrigin::total            0                       # Table walker requests started/completed, data/inst (Count)
system.switch_cpus1.mmu.stage2_itb_walker.power_state.pwrStateResidencyTicks::UNDEFINED 12025616113500                       # Cumulative time (in ticks) in various power states (Tick)
system.switch_cpus1.power_state.numTransitions         4907                       # Number of power state transitions (Count)
system.switch_cpus1.power_state.ticksClkGated::samples         2453                       # Distribution of time spent in the clock gated state (Tick)
system.switch_cpus1.power_state.ticksClkGated::mean 3940452906.443539                       # Distribution of time spent in the clock gated state (Tick)
system.switch_cpus1.power_state.ticksClkGated::stdev 449598747.970082                       # Distribution of time spent in the clock gated state (Tick)
system.switch_cpus1.power_state.ticksClkGated::underflows            3      0.12%      0.12% # Distribution of time spent in the clock gated state (Tick)
system.switch_cpus1.power_state.ticksClkGated::1000-5e+10         2450     99.88%    100.00% # Distribution of time spent in the clock gated state (Tick)
system.switch_cpus1.power_state.ticksClkGated::min_value          501                       # Distribution of time spent in the clock gated state (Tick)
system.switch_cpus1.power_state.ticksClkGated::max_value   4003907500                       # Distribution of time spent in the clock gated state (Tick)
system.switch_cpus1.power_state.ticksClkGated::total         2453                       # Distribution of time spent in the clock gated state (Tick)
system.switch_cpus1.power_state.pwrStateResidencyTicks::ON  19598622244                       # Cumulative time (in ticks) in various power states (Tick)
system.switch_cpus1.power_state.pwrStateResidencyTicks::CLK_GATED 9665930979506                       # Cumulative time (in ticks) in various power states (Tick)
system.switch_cpus1.power_state.pwrStateResidencyTicks::OFF 2340086511750                       # Cumulative time (in ticks) in various power states (Tick)
system.switch_cpus1.rename.squashCycles         89235                       # Number of cycles rename is squashing (Cycle)
system.switch_cpus1.rename.idleCycles         5138344                       # Number of cycles rename is idle (Cycle)
system.switch_cpus1.rename.blockCycles        3510594                       # Number of cycles rename is blocking (Cycle)
system.switch_cpus1.rename.serializeStallCycles     20306066                       # count of cycles rename stalled for serializing inst (Cycle)
system.switch_cpus1.rename.runCycles          5514119                       # Number of cycles rename is running (Cycle)
system.switch_cpus1.rename.unblockCycles      2211547                       # Number of cycles rename is unblocking (Cycle)
system.switch_cpus1.rename.renamedInsts      31459088                       # Number of instructions processed by rename (Count)
system.switch_cpus1.rename.ROBFullEvents         2448                       # Number of times rename has blocked due to ROB full (Count)
system.switch_cpus1.rename.IQFullEvents        302663                       # Number of times rename has blocked due to IQ full (Count)
system.switch_cpus1.rename.LQFullEvents        338765                       # Number of times rename has blocked due to LQ full (Count)
system.switch_cpus1.rename.SQFullEvents        515794                       # Number of times rename has blocked due to SQ full (Count)
system.switch_cpus1.rename.renamedOperands     26524178                       # Number of destination operands rename has renamed (Count)
system.switch_cpus1.rename.lookups           44845259                       # Number of register rename lookups that rename has made (Count)
system.switch_cpus1.rename.intLookups        33177363                       # Number of integer rename lookups (Count)
system.switch_cpus1.rename.vecLookups           11869                       # Number of vector rename lookups (Count)
system.switch_cpus1.rename.committedMaps     24870163                       # Number of HB maps that are committed (Count)
system.switch_cpus1.rename.undoneMaps         1654015                       # Number of HB maps that are undone due to squashing (Count)
system.switch_cpus1.rename.serializing         864690                       # count of serializing insts renamed (Count)
system.switch_cpus1.rename.tempSerializing       217821                       # count of temporary serializing insts renamed (Count)
system.switch_cpus1.rename.skidInsts          5563144                       # count of insts added to the skid buffer (Count)
system.switch_cpus1.rob.reads                65908979                       # The number of ROB reads (Count)
system.switch_cpus1.rob.writes               62688546                       # The number of ROB writes (Count)
system.switch_cpus1.thread_0.numInsts        24689169                       # Number of Instructions committed (Count)
system.switch_cpus1.thread_0.numOps          29098277                       # Number of Ops committed (Count)
system.switch_cpus1.thread_0.numMemRefs             0                       # Number of Memory References (Count)
system.tollcbus.transDist::ReadReq             308883                       # Transaction distribution (Count)
system.tollcbus.transDist::ReadResp         165257403                       # Transaction distribution (Count)
system.tollcbus.transDist::WriteReq             43761                       # Transaction distribution (Count)
system.tollcbus.transDist::WriteResp            43761                       # Transaction distribution (Count)
system.tollcbus.transDist::WritebackDirty    111154143                       # Transaction distribution (Count)
system.tollcbus.transDist::CleanEvict       326055390                       # Transaction distribution (Count)
system.tollcbus.transDist::UpgradeReq           28988                       # Transaction distribution (Count)
system.tollcbus.transDist::UpgradeResp          28988                       # Transaction distribution (Count)
system.tollcbus.transDist::ReadExReq          2932066                       # Transaction distribution (Count)
system.tollcbus.transDist::ReadExResp         2932066                       # Transaction distribution (Count)
system.tollcbus.transDist::ReadSharedReq    164948520                       # Transaction distribution (Count)
system.tollcbus.transDist::InvalidateReq     51643444                       # Transaction distribution (Count)
system.tollcbus.transDist::InvalidateResp     51643444                       # Transaction distribution (Count)
system.tollcbus.pktCount_system.cpu0.l2cache.mem_side_port::system.llc.cpu_side_port    658781440                       # Packet count per connected requestor and responder (Count)
system.tollcbus.pktCount_system.cpu1.l2cache.mem_side_port::system.llc.cpu_side_port       448607                       # Packet count per connected requestor and responder (Count)
system.tollcbus.pktCount::total             659230047                       # Packet count per connected requestor and responder (Count)
system.tollcbus.pktSize_system.cpu0.l2cache.mem_side_port::system.llc.cpu_side_port  14341632268                       # Cumulative packet size per connected requestor and responder (Byte)
system.tollcbus.pktSize_system.cpu1.l2cache.mem_side_port::system.llc.cpu_side_port      5589147                       # Cumulative packet size per connected requestor and responder (Byte)
system.tollcbus.pktSize::total            14347221415                       # Cumulative packet size per connected requestor and responder (Byte)
system.tollcbus.snoops                      217790810                       # Total snoops (Count)
system.tollcbus.snoopTraffic               3512333952                       # Total snoop traffic (Byte)
system.tollcbus.snoopFanout::samples        437479275                       # Request fanout histogram (Count)
system.tollcbus.snoopFanout::mean            0.005311                       # Request fanout histogram (Count)
system.tollcbus.snoopFanout::stdev           0.080390                       # Request fanout histogram (Count)
system.tollcbus.snoopFanout::underflows             0      0.00%      0.00% # Request fanout histogram (Count)
system.tollcbus.snoopFanout::0              435414087     99.53%     99.53% # Request fanout histogram (Count)
system.tollcbus.snoopFanout::1                1807049      0.41%     99.94% # Request fanout histogram (Count)
system.tollcbus.snoopFanout::2                 258139      0.06%    100.00% # Request fanout histogram (Count)
system.tollcbus.snoopFanout::overflows              0      0.00%    100.00% # Request fanout histogram (Count)
system.tollcbus.snoopFanout::min_value              0                       # Request fanout histogram (Count)
system.tollcbus.snoopFanout::max_value              2                       # Request fanout histogram (Count)
system.tollcbus.snoopFanout::total          437479275                       # Request fanout histogram (Count)
system.tollcbus.power_state.pwrStateResidencyTicks::UNDEFINED 12025616113500                       # Cumulative time (in ticks) in various power states (Tick)
system.tollcbus.reqLayer0.occupancy      275937555102                       # Layer occupancy (ticks) (Tick)
system.tollcbus.reqLayer0.utilization             0.0                       # Layer utilization (Ratio)
system.tollcbus.respLayer0.occupancy     277646844658                       # Layer occupancy (ticks) (Tick)
system.tollcbus.respLayer0.utilization            0.0                       # Layer utilization (Ratio)
system.tollcbus.respLayer1.occupancy        191988838                       # Layer occupancy (ticks) (Tick)
system.tollcbus.respLayer1.utilization            0.0                       # Layer utilization (Ratio)
system.tollcbus.snoop_filter.totRequests    439026760                       # Total number of requests made to the snoop filter. (Count)
system.tollcbus.snoop_filter.hitSingleRequests    219499547                       # Number of requests hitting in the snoop filter with a single holder of the requested data. (Count)
system.tollcbus.snoop_filter.hitMultiRequests       652641                       # Number of requests hitting in the snoop filter with multiple (>1) holders of the requested data. (Count)
system.tollcbus.snoop_filter.totSnoops        1399179                       # Total number of snoops made to the snoop filter. (Count)
system.tollcbus.snoop_filter.hitSingleSnoops      1141040                       # Number of snoops hitting in the snoop filter with a single holder of the requested data. (Count)
system.tollcbus.snoop_filter.hitMultiSnoops       258139                       # Number of snoops hitting in the snoop filter with multiple (>1) holders of the requested data. (Count)
system.voltage_domain.voltage                       1                       # Voltage in Volts (Volt)
system.workload.inst.arm                            0                       # number of arm instructions executed (Count)
system.workload.inst.quiesce                     2468                       # number of quiesce instructions executed (Count)

---------- End Simulation Statistics   ----------
