
---------- Begin Simulation Statistics ----------
simSeconds                                   3.959187                       # Number of seconds simulated (Second)
simTicks                                 3959187068000                       # Number of ticks simulated (Tick)
finalTick                                3959187068000                       # Number of ticks from beginning of simulation (restored from checkpoints and never reset) (Tick)
simFreq                                  1000000000000                       # The number of ticks per simulated second ((Tick/Second))
hostSeconds                                     82.60                       # Real time elapsed on the host (Second)
hostTickRate                              47932928030                       # The number of ticks simulated per host second (ticks/s) ((Tick/Second))
hostMemory                                   18048624                       # Number of bytes of host memory used (Byte)
simInsts                                    734968472                       # Number of instructions simulated (Count)
simOps                                      736073657                       # Number of ops (including micro ops) simulated (Count)
hostInstRate                                  8898066                       # Simulator instruction rate (inst/s) ((Count/Second))
hostOpRate                                    8911444                       # Simulator op (including micro ops) rate (op/s) ((Count/Second))
system.bridge.power_state.pwrStateResidencyTicks::UNDEFINED 3959187068000                       # Cumulative time (in ticks) in various power states (Tick)
system.clk_domain.clock                          1000                       # Clock period in ticks (Tick)
system.cpu.numCycles                       4881799743                       # Number of cpu cycles simulated (Cycle)
system.cpu.numWorkItemsStarted                      0                       # Number of work items this cpu started (Count)
system.cpu.numWorkItemsCompleted                    0                       # Number of work items this cpu completed (Count)
system.cpu.committedInsts                   728335935                       # Number of instructions committed (Count)
system.cpu.numVMExits                          207932                       # total number of KVM exits (Count)
system.cpu.numVMHalfEntries                         0                       # number of KVM entries to finalize pending operations (Count)
system.cpu.numExitSignal                         4908                       # exits due to signal delivery (Count)
system.cpu.numMMIO                             203024                       # number of VM exits due to memory mapped IO (Count)
system.cpu.numCoalescedMMIO                         0                       # number of coalesced memory mapped IO requests (Count)
system.cpu.numIO                                    0                       # number of VM exits due to legacy IO (Count)
system.cpu.numHalt                                  0                       # number of VM exits due to wait for interrupt instructions (Count)
system.cpu.numInterrupts                            0                       # number of interrupts delivered (Count)
system.cpu.numHypercalls                            0                       # number of hypercalls (Count)
system.cpu.dcache.demandHits::switch_cpus.data      2334538                       # number of demand (read+write) hits (Count)
system.cpu.dcache.demandHits::total           2334538                       # number of demand (read+write) hits (Count)
system.cpu.dcache.overallHits::switch_cpus.data      2334727                       # number of overall hits (Count)
system.cpu.dcache.overallHits::total          2334727                       # number of overall hits (Count)
system.cpu.dcache.demandMisses::switch_cpus.data       186163                       # number of demand (read+write) misses (Count)
system.cpu.dcache.demandMisses::total          186163                       # number of demand (read+write) misses (Count)
system.cpu.dcache.overallMisses::switch_cpus.data       186623                       # number of overall misses (Count)
system.cpu.dcache.overallMisses::total         186623                       # number of overall misses (Count)
system.cpu.dcache.demandMissLatency::switch_cpus.data   8910097192                       # number of demand (read+write) miss ticks (Tick)
system.cpu.dcache.demandMissLatency::total   8910097192                       # number of demand (read+write) miss ticks (Tick)
system.cpu.dcache.overallMissLatency::switch_cpus.data   8910097192                       # number of overall miss ticks (Tick)
system.cpu.dcache.overallMissLatency::total   8910097192                       # number of overall miss ticks (Tick)
system.cpu.dcache.demandAccesses::switch_cpus.data      2520701                       # number of demand (read+write) accesses (Count)
system.cpu.dcache.demandAccesses::total       2520701                       # number of demand (read+write) accesses (Count)
system.cpu.dcache.overallAccesses::switch_cpus.data      2521350                       # number of overall (read+write) accesses (Count)
system.cpu.dcache.overallAccesses::total      2521350                       # number of overall (read+write) accesses (Count)
system.cpu.dcache.demandMissRate::switch_cpus.data     0.073854                       # miss rate for demand accesses (Ratio)
system.cpu.dcache.demandMissRate::total      0.073854                       # miss rate for demand accesses (Ratio)
system.cpu.dcache.overallMissRate::switch_cpus.data     0.074017                       # miss rate for overall accesses (Ratio)
system.cpu.dcache.overallMissRate::total     0.074017                       # miss rate for overall accesses (Ratio)
system.cpu.dcache.demandAvgMissLatency::switch_cpus.data 47861.804934                       # average overall miss latency in ticks ((Tick/Count))
system.cpu.dcache.demandAvgMissLatency::total 47861.804934                       # average overall miss latency in ticks ((Tick/Count))
system.cpu.dcache.overallAvgMissLatency::switch_cpus.data 47743.832175                       # average overall miss latency ((Tick/Count))
system.cpu.dcache.overallAvgMissLatency::total 47743.832175                       # average overall miss latency ((Tick/Count))
system.cpu.dcache.blockedCycles::no_mshrs       703382                       # number of cycles access was blocked (Cycle)
system.cpu.dcache.blockedCycles::no_targets           16                       # number of cycles access was blocked (Cycle)
system.cpu.dcache.blockedCauses::no_mshrs        22367                       # number of times access was blocked (Count)
system.cpu.dcache.blockedCauses::no_targets            1                       # number of times access was blocked (Count)
system.cpu.dcache.avgBlocked::no_mshrs      31.447311                       # average number of cycles each access was blocked ((Cycle/Count))
system.cpu.dcache.avgBlocked::no_targets           16                       # average number of cycles each access was blocked ((Cycle/Count))
system.cpu.dcache.writebacks::writebacks        36706                       # number of writebacks (Count)
system.cpu.dcache.writebacks::total             36706                       # number of writebacks (Count)
system.cpu.dcache.demandMshrHits::switch_cpus.data       125438                       # number of demand (read+write) MSHR hits (Count)
system.cpu.dcache.demandMshrHits::total        125438                       # number of demand (read+write) MSHR hits (Count)
system.cpu.dcache.overallMshrHits::switch_cpus.data       125438                       # number of overall MSHR hits (Count)
system.cpu.dcache.overallMshrHits::total       125438                       # number of overall MSHR hits (Count)
system.cpu.dcache.demandMshrMisses::switch_cpus.data        60725                       # number of demand (read+write) MSHR misses (Count)
system.cpu.dcache.demandMshrMisses::total        60725                       # number of demand (read+write) MSHR misses (Count)
system.cpu.dcache.overallMshrMisses::switch_cpus.data        61183                       # number of overall MSHR misses (Count)
system.cpu.dcache.overallMshrMisses::total        61183                       # number of overall MSHR misses (Count)
system.cpu.dcache.overallMshrUncacheable::switch_cpus.data         3805                       # number of overall MSHR uncacheable misses (Count)
system.cpu.dcache.overallMshrUncacheable::total         3805                       # number of overall MSHR uncacheable misses (Count)
system.cpu.dcache.demandMshrMissLatency::switch_cpus.data   3026973840                       # number of demand (read+write) MSHR miss ticks (Tick)
system.cpu.dcache.demandMshrMissLatency::total   3026973840                       # number of demand (read+write) MSHR miss ticks (Tick)
system.cpu.dcache.overallMshrMissLatency::switch_cpus.data   3051498340                       # number of overall MSHR miss ticks (Tick)
system.cpu.dcache.overallMshrMissLatency::total   3051498340                       # number of overall MSHR miss ticks (Tick)
system.cpu.dcache.overallMshrUncacheableLatency::switch_cpus.data    331347500                       # number of overall MSHR uncacheable ticks (Tick)
system.cpu.dcache.overallMshrUncacheableLatency::total    331347500                       # number of overall MSHR uncacheable ticks (Tick)
system.cpu.dcache.demandMshrMissRate::switch_cpus.data     0.024091                       # mshr miss ratio for demand accesses (Ratio)
system.cpu.dcache.demandMshrMissRate::total     0.024091                       # mshr miss ratio for demand accesses (Ratio)
system.cpu.dcache.overallMshrMissRate::switch_cpus.data     0.024266                       # mshr miss ratio for overall accesses (Ratio)
system.cpu.dcache.overallMshrMissRate::total     0.024266                       # mshr miss ratio for overall accesses (Ratio)
system.cpu.dcache.demandAvgMshrMissLatency::switch_cpus.data 49847.243145                       # average overall mshr miss latency ((Tick/Count))
system.cpu.dcache.demandAvgMshrMissLatency::total 49847.243145                       # average overall mshr miss latency ((Tick/Count))
system.cpu.dcache.overallAvgMshrMissLatency::switch_cpus.data 49874.938136                       # average overall mshr miss latency ((Tick/Count))
system.cpu.dcache.overallAvgMshrMissLatency::total 49874.938136                       # average overall mshr miss latency ((Tick/Count))
system.cpu.dcache.overallAvgMshrUncacheableLatency::switch_cpus.data 87082.128778                       # average overall mshr uncacheable latency ((Tick/Count))
system.cpu.dcache.overallAvgMshrUncacheableLatency::total 87082.128778                       # average overall mshr uncacheable latency ((Tick/Count))
system.cpu.dcache.replacements                  60311                       # number of replacements (Count)
system.cpu.dcache.CleanSharedReq.missLatency::switch_cpus.data       375000                       # number of CleanSharedReq miss ticks (Tick)
system.cpu.dcache.CleanSharedReq.missLatency::total       375000                       # number of CleanSharedReq miss ticks (Tick)
system.cpu.dcache.CleanSharedReq.avgMissLatency::switch_cpus.data          inf                       # average CleanSharedReq miss latency ((Tick/Count))
system.cpu.dcache.CleanSharedReq.avgMissLatency::total          inf                       # average CleanSharedReq miss latency ((Tick/Count))
system.cpu.dcache.CleanSharedReq.mshrMisses::switch_cpus.data         1536                       # number of CleanSharedReq MSHR misses (Count)
system.cpu.dcache.CleanSharedReq.mshrMisses::total         1536                       # number of CleanSharedReq MSHR misses (Count)
system.cpu.dcache.CleanSharedReq.mshrMissLatency::switch_cpus.data      2462850                       # number of CleanSharedReq MSHR miss ticks (Tick)
system.cpu.dcache.CleanSharedReq.mshrMissLatency::total      2462850                       # number of CleanSharedReq MSHR miss ticks (Tick)
system.cpu.dcache.CleanSharedReq.mshrMissRate::switch_cpus.data          inf                       # mshr miss rate for CleanSharedReq accesses (Ratio)
system.cpu.dcache.CleanSharedReq.mshrMissRate::total          inf                       # mshr miss rate for CleanSharedReq accesses (Ratio)
system.cpu.dcache.CleanSharedReq.avgMshrMissLatency::switch_cpus.data  1603.417969                       # average CleanSharedReq mshr miss latency ((Tick/Count))
system.cpu.dcache.CleanSharedReq.avgMshrMissLatency::total  1603.417969                       # average CleanSharedReq mshr miss latency ((Tick/Count))
system.cpu.dcache.ReadReq.hits::switch_cpus.data      1434768                       # number of ReadReq hits (Count)
system.cpu.dcache.ReadReq.hits::total         1434768                       # number of ReadReq hits (Count)
system.cpu.dcache.ReadReq.misses::switch_cpus.data       104256                       # number of ReadReq misses (Count)
system.cpu.dcache.ReadReq.misses::total        104256                       # number of ReadReq misses (Count)
system.cpu.dcache.ReadReq.missLatency::switch_cpus.data   4995938000                       # number of ReadReq miss ticks (Tick)
system.cpu.dcache.ReadReq.missLatency::total   4995938000                       # number of ReadReq miss ticks (Tick)
system.cpu.dcache.ReadReq.accesses::switch_cpus.data      1539024                       # number of ReadReq accesses(hits+misses) (Count)
system.cpu.dcache.ReadReq.accesses::total      1539024                       # number of ReadReq accesses(hits+misses) (Count)
system.cpu.dcache.ReadReq.missRate::switch_cpus.data     0.067742                       # miss rate for ReadReq accesses (Ratio)
system.cpu.dcache.ReadReq.missRate::total     0.067742                       # miss rate for ReadReq accesses (Ratio)
system.cpu.dcache.ReadReq.avgMissLatency::switch_cpus.data 47919.908686                       # average ReadReq miss latency ((Tick/Count))
system.cpu.dcache.ReadReq.avgMissLatency::total 47919.908686                       # average ReadReq miss latency ((Tick/Count))
system.cpu.dcache.ReadReq.mshrHits::switch_cpus.data        62824                       # number of ReadReq MSHR hits (Count)
system.cpu.dcache.ReadReq.mshrHits::total        62824                       # number of ReadReq MSHR hits (Count)
system.cpu.dcache.ReadReq.mshrMisses::switch_cpus.data        41432                       # number of ReadReq MSHR misses (Count)
system.cpu.dcache.ReadReq.mshrMisses::total        41432                       # number of ReadReq MSHR misses (Count)
system.cpu.dcache.ReadReq.mshrUncacheable::switch_cpus.data         2953                       # number of ReadReq MSHR uncacheable (Count)
system.cpu.dcache.ReadReq.mshrUncacheable::total         2953                       # number of ReadReq MSHR uncacheable (Count)
system.cpu.dcache.ReadReq.mshrMissLatency::switch_cpus.data   1991123001                       # number of ReadReq MSHR miss ticks (Tick)
system.cpu.dcache.ReadReq.mshrMissLatency::total   1991123001                       # number of ReadReq MSHR miss ticks (Tick)
system.cpu.dcache.ReadReq.mshrUncacheableLatency::switch_cpus.data    331347500                       # number of ReadReq MSHR uncacheable ticks (Tick)
system.cpu.dcache.ReadReq.mshrUncacheableLatency::total    331347500                       # number of ReadReq MSHR uncacheable ticks (Tick)
system.cpu.dcache.ReadReq.mshrMissRate::switch_cpus.data     0.026921                       # mshr miss rate for ReadReq accesses (Ratio)
system.cpu.dcache.ReadReq.mshrMissRate::total     0.026921                       # mshr miss rate for ReadReq accesses (Ratio)
system.cpu.dcache.ReadReq.avgMshrMissLatency::switch_cpus.data 48057.612498                       # average ReadReq mshr miss latency ((Tick/Count))
system.cpu.dcache.ReadReq.avgMshrMissLatency::total 48057.612498                       # average ReadReq mshr miss latency ((Tick/Count))
system.cpu.dcache.ReadReq.avgMshrUncacheableLatency::switch_cpus.data 112207.077548                       # average ReadReq mshr uncacheable latency ((Tick/Count))
system.cpu.dcache.ReadReq.avgMshrUncacheableLatency::total 112207.077548                       # average ReadReq mshr uncacheable latency ((Tick/Count))
system.cpu.dcache.SoftPFExReq.hits::switch_cpus.data           65                       # number of SoftPFExReq hits (Count)
system.cpu.dcache.SoftPFExReq.hits::total           65                       # number of SoftPFExReq hits (Count)
system.cpu.dcache.SoftPFExReq.accesses::switch_cpus.data           65                       # number of SoftPFExReq accesses(hits+misses) (Count)
system.cpu.dcache.SoftPFExReq.accesses::total           65                       # number of SoftPFExReq accesses(hits+misses) (Count)
system.cpu.dcache.SoftPFReq.hits::switch_cpus.data          124                       # number of SoftPFReq hits (Count)
system.cpu.dcache.SoftPFReq.hits::total           124                       # number of SoftPFReq hits (Count)
system.cpu.dcache.SoftPFReq.misses::switch_cpus.data          460                       # number of SoftPFReq misses (Count)
system.cpu.dcache.SoftPFReq.misses::total          460                       # number of SoftPFReq misses (Count)
system.cpu.dcache.SoftPFReq.accesses::switch_cpus.data          584                       # number of SoftPFReq accesses(hits+misses) (Count)
system.cpu.dcache.SoftPFReq.accesses::total          584                       # number of SoftPFReq accesses(hits+misses) (Count)
system.cpu.dcache.SoftPFReq.missRate::switch_cpus.data     0.787671                       # miss rate for SoftPFReq accesses (Ratio)
system.cpu.dcache.SoftPFReq.missRate::total     0.787671                       # miss rate for SoftPFReq accesses (Ratio)
system.cpu.dcache.SoftPFReq.mshrMisses::switch_cpus.data          458                       # number of SoftPFReq MSHR misses (Count)
system.cpu.dcache.SoftPFReq.mshrMisses::total          458                       # number of SoftPFReq MSHR misses (Count)
system.cpu.dcache.SoftPFReq.mshrMissLatency::switch_cpus.data     24524500                       # number of SoftPFReq MSHR miss ticks (Tick)
system.cpu.dcache.SoftPFReq.mshrMissLatency::total     24524500                       # number of SoftPFReq MSHR miss ticks (Tick)
system.cpu.dcache.SoftPFReq.mshrMissRate::switch_cpus.data     0.784247                       # mshr miss rate for SoftPFReq accesses (Ratio)
system.cpu.dcache.SoftPFReq.mshrMissRate::total     0.784247                       # mshr miss rate for SoftPFReq accesses (Ratio)
system.cpu.dcache.SoftPFReq.avgMshrMissLatency::switch_cpus.data 53546.943231                       # average SoftPFReq mshr miss latency ((Tick/Count))
system.cpu.dcache.SoftPFReq.avgMshrMissLatency::total 53546.943231                       # average SoftPFReq mshr miss latency ((Tick/Count))
system.cpu.dcache.SwapReq.hits::switch_cpus.data        30836                       # number of SwapReq hits (Count)
system.cpu.dcache.SwapReq.hits::total           30836                       # number of SwapReq hits (Count)
system.cpu.dcache.SwapReq.misses::switch_cpus.data         4145                       # number of SwapReq misses (Count)
system.cpu.dcache.SwapReq.misses::total          4145                       # number of SwapReq misses (Count)
system.cpu.dcache.SwapReq.missLatency::switch_cpus.data     80662500                       # number of SwapReq miss ticks (Tick)
system.cpu.dcache.SwapReq.missLatency::total     80662500                       # number of SwapReq miss ticks (Tick)
system.cpu.dcache.SwapReq.accesses::switch_cpus.data        34981                       # number of SwapReq accesses(hits+misses) (Count)
system.cpu.dcache.SwapReq.accesses::total        34981                       # number of SwapReq accesses(hits+misses) (Count)
system.cpu.dcache.SwapReq.missRate::switch_cpus.data     0.118493                       # miss rate for SwapReq accesses (Ratio)
system.cpu.dcache.SwapReq.missRate::total     0.118493                       # miss rate for SwapReq accesses (Ratio)
system.cpu.dcache.SwapReq.avgMissLatency::switch_cpus.data 19460.193004                       # average SwapReq miss latency ((Tick/Count))
system.cpu.dcache.SwapReq.avgMissLatency::total 19460.193004                       # average SwapReq miss latency ((Tick/Count))
system.cpu.dcache.SwapReq.mshrHits::switch_cpus.data            3                       # number of SwapReq MSHR hits (Count)
system.cpu.dcache.SwapReq.mshrHits::total            3                       # number of SwapReq MSHR hits (Count)
system.cpu.dcache.SwapReq.mshrMisses::switch_cpus.data         4142                       # number of SwapReq MSHR misses (Count)
system.cpu.dcache.SwapReq.mshrMisses::total         4142                       # number of SwapReq MSHR misses (Count)
system.cpu.dcache.SwapReq.mshrMissLatency::switch_cpus.data     76254500                       # number of SwapReq MSHR miss ticks (Tick)
system.cpu.dcache.SwapReq.mshrMissLatency::total     76254500                       # number of SwapReq MSHR miss ticks (Tick)
system.cpu.dcache.SwapReq.mshrMissRate::switch_cpus.data     0.118407                       # mshr miss rate for SwapReq accesses (Ratio)
system.cpu.dcache.SwapReq.mshrMissRate::total     0.118407                       # mshr miss rate for SwapReq accesses (Ratio)
system.cpu.dcache.SwapReq.avgMshrMissLatency::switch_cpus.data 18410.067600                       # average SwapReq mshr miss latency ((Tick/Count))
system.cpu.dcache.SwapReq.avgMshrMissLatency::total 18410.067600                       # average SwapReq mshr miss latency ((Tick/Count))
system.cpu.dcache.WriteLineReq.hits::switch_cpus.data          465                       # number of WriteLineReq hits (Count)
system.cpu.dcache.WriteLineReq.hits::total          465                       # number of WriteLineReq hits (Count)
system.cpu.dcache.WriteLineReq.misses::switch_cpus.data         5030                       # number of WriteLineReq misses (Count)
system.cpu.dcache.WriteLineReq.misses::total         5030                       # number of WriteLineReq misses (Count)
system.cpu.dcache.WriteLineReq.missLatency::switch_cpus.data    244652618                       # number of WriteLineReq miss ticks (Tick)
system.cpu.dcache.WriteLineReq.missLatency::total    244652618                       # number of WriteLineReq miss ticks (Tick)
system.cpu.dcache.WriteLineReq.accesses::switch_cpus.data         5495                       # number of WriteLineReq accesses(hits+misses) (Count)
system.cpu.dcache.WriteLineReq.accesses::total         5495                       # number of WriteLineReq accesses(hits+misses) (Count)
system.cpu.dcache.WriteLineReq.missRate::switch_cpus.data     0.915378                       # miss rate for WriteLineReq accesses (Ratio)
system.cpu.dcache.WriteLineReq.missRate::total     0.915378                       # miss rate for WriteLineReq accesses (Ratio)
system.cpu.dcache.WriteLineReq.avgMissLatency::switch_cpus.data 48638.691451                       # average WriteLineReq miss latency ((Tick/Count))
system.cpu.dcache.WriteLineReq.avgMissLatency::total 48638.691451                       # average WriteLineReq miss latency ((Tick/Count))
system.cpu.dcache.WriteLineReq.mshrHits::switch_cpus.data           25                       # number of WriteLineReq MSHR hits (Count)
system.cpu.dcache.WriteLineReq.mshrHits::total           25                       # number of WriteLineReq MSHR hits (Count)
system.cpu.dcache.WriteLineReq.mshrMisses::switch_cpus.data         5005                       # number of WriteLineReq MSHR misses (Count)
system.cpu.dcache.WriteLineReq.mshrMisses::total         5005                       # number of WriteLineReq MSHR misses (Count)
system.cpu.dcache.WriteLineReq.mshrMissLatency::switch_cpus.data    238004618                       # number of WriteLineReq MSHR miss ticks (Tick)
system.cpu.dcache.WriteLineReq.mshrMissLatency::total    238004618                       # number of WriteLineReq MSHR miss ticks (Tick)
system.cpu.dcache.WriteLineReq.mshrMissRate::switch_cpus.data     0.910828                       # mshr miss rate for WriteLineReq accesses (Ratio)
system.cpu.dcache.WriteLineReq.mshrMissRate::total     0.910828                       # mshr miss rate for WriteLineReq accesses (Ratio)
system.cpu.dcache.WriteLineReq.avgMshrMissLatency::switch_cpus.data 47553.370230                       # average WriteLineReq mshr miss latency ((Tick/Count))
system.cpu.dcache.WriteLineReq.avgMshrMissLatency::total 47553.370230                       # average WriteLineReq mshr miss latency ((Tick/Count))
system.cpu.dcache.WriteReq.hits::switch_cpus.data       899305                       # number of WriteReq hits (Count)
system.cpu.dcache.WriteReq.hits::total         899305                       # number of WriteReq hits (Count)
system.cpu.dcache.WriteReq.misses::switch_cpus.data        76877                       # number of WriteReq misses (Count)
system.cpu.dcache.WriteReq.misses::total        76877                       # number of WriteReq misses (Count)
system.cpu.dcache.WriteReq.missLatency::switch_cpus.data   3669506574                       # number of WriteReq miss ticks (Tick)
system.cpu.dcache.WriteReq.missLatency::total   3669506574                       # number of WriteReq miss ticks (Tick)
system.cpu.dcache.WriteReq.accesses::switch_cpus.data       976182                       # number of WriteReq accesses(hits+misses) (Count)
system.cpu.dcache.WriteReq.accesses::total       976182                       # number of WriteReq accesses(hits+misses) (Count)
system.cpu.dcache.WriteReq.missRate::switch_cpus.data     0.078753                       # miss rate for WriteReq accesses (Ratio)
system.cpu.dcache.WriteReq.missRate::total     0.078753                       # miss rate for WriteReq accesses (Ratio)
system.cpu.dcache.WriteReq.avgMissLatency::switch_cpus.data 47732.177036                       # average WriteReq miss latency ((Tick/Count))
system.cpu.dcache.WriteReq.avgMissLatency::total 47732.177036                       # average WriteReq miss latency ((Tick/Count))
system.cpu.dcache.WriteReq.mshrHits::switch_cpus.data        62589                       # number of WriteReq MSHR hits (Count)
system.cpu.dcache.WriteReq.mshrHits::total        62589                       # number of WriteReq MSHR hits (Count)
system.cpu.dcache.WriteReq.mshrMisses::switch_cpus.data        14288                       # number of WriteReq MSHR misses (Count)
system.cpu.dcache.WriteReq.mshrMisses::total        14288                       # number of WriteReq MSHR misses (Count)
system.cpu.dcache.WriteReq.mshrUncacheable::switch_cpus.data          852                       # number of WriteReq MSHR uncacheable (Count)
system.cpu.dcache.WriteReq.mshrUncacheable::total          852                       # number of WriteReq MSHR uncacheable (Count)
system.cpu.dcache.WriteReq.mshrMissLatency::switch_cpus.data    797846221                       # number of WriteReq MSHR miss ticks (Tick)
system.cpu.dcache.WriteReq.mshrMissLatency::total    797846221                       # number of WriteReq MSHR miss ticks (Tick)
system.cpu.dcache.WriteReq.mshrMissRate::switch_cpus.data     0.014637                       # mshr miss rate for WriteReq accesses (Ratio)
system.cpu.dcache.WriteReq.mshrMissRate::total     0.014637                       # mshr miss rate for WriteReq accesses (Ratio)
system.cpu.dcache.WriteReq.avgMshrMissLatency::switch_cpus.data 55840.301022                       # average WriteReq mshr miss latency ((Tick/Count))
system.cpu.dcache.WriteReq.avgMshrMissLatency::total 55840.301022                       # average WriteReq mshr miss latency ((Tick/Count))
system.cpu.dcache.power_state.pwrStateResidencyTicks::UNDEFINED 3959187068000                       # Cumulative time (in ticks) in various power states (Tick)
system.cpu.dcache.tags.tagsInUse             1.789866                       # Average ticks per tags in use ((Tick/Count))
system.cpu.dcache.tags.totalRefs              2432461                       # Total number of references to valid blocks. (Count)
system.cpu.dcache.tags.sampledRefs              61335                       # Sample count of references to valid blocks. (Count)
system.cpu.dcache.tags.avgRefs              39.658613                       # Average number of references to valid blocks. ((Count/Count))
system.cpu.dcache.tags.warmupTick        2502045696500                       # The tick when the warmup percentage was hit. (Tick)
system.cpu.dcache.tags.occupancies::switch_cpus.data     1.789866                       # Average occupied blocks per tick, per requestor ((Count/Tick))
system.cpu.dcache.tags.avgOccs::switch_cpus.data     0.001748                       # Average percentage of cache occupancy ((Ratio/Tick))
system.cpu.dcache.tags.avgOccs::total        0.001748                       # Average percentage of cache occupancy ((Ratio/Tick))
system.cpu.dcache.tags.tagAccesses           10292803                       # Number of tag accesses (Count)
system.cpu.dcache.tags.dataAccesses          10292803                       # Number of data accesses (Count)
system.cpu.dcache.tags.power_state.pwrStateResidencyTicks::UNDEFINED 3959187068000                       # Cumulative time (in ticks) in various power states (Tick)
system.cpu.icache.demandHits::switch_cpus.inst      1352672                       # number of demand (read+write) hits (Count)
system.cpu.icache.demandHits::total           1352672                       # number of demand (read+write) hits (Count)
system.cpu.icache.overallHits::switch_cpus.inst      1352672                       # number of overall hits (Count)
system.cpu.icache.overallHits::total          1352672                       # number of overall hits (Count)
system.cpu.icache.demandMisses::switch_cpus.inst       106252                       # number of demand (read+write) misses (Count)
system.cpu.icache.demandMisses::total          106252                       # number of demand (read+write) misses (Count)
system.cpu.icache.overallMisses::switch_cpus.inst       106252                       # number of overall misses (Count)
system.cpu.icache.overallMisses::total         106252                       # number of overall misses (Count)
system.cpu.icache.demandMissLatency::switch_cpus.inst   3175355486                       # number of demand (read+write) miss ticks (Tick)
system.cpu.icache.demandMissLatency::total   3175355486                       # number of demand (read+write) miss ticks (Tick)
system.cpu.icache.overallMissLatency::switch_cpus.inst   3175355486                       # number of overall miss ticks (Tick)
system.cpu.icache.overallMissLatency::total   3175355486                       # number of overall miss ticks (Tick)
system.cpu.icache.demandAccesses::switch_cpus.inst      1458924                       # number of demand (read+write) accesses (Count)
system.cpu.icache.demandAccesses::total       1458924                       # number of demand (read+write) accesses (Count)
system.cpu.icache.overallAccesses::switch_cpus.inst      1458924                       # number of overall (read+write) accesses (Count)
system.cpu.icache.overallAccesses::total      1458924                       # number of overall (read+write) accesses (Count)
system.cpu.icache.demandMissRate::switch_cpus.inst     0.072829                       # miss rate for demand accesses (Ratio)
system.cpu.icache.demandMissRate::total      0.072829                       # miss rate for demand accesses (Ratio)
system.cpu.icache.overallMissRate::switch_cpus.inst     0.072829                       # miss rate for overall accesses (Ratio)
system.cpu.icache.overallMissRate::total     0.072829                       # miss rate for overall accesses (Ratio)
system.cpu.icache.demandAvgMissLatency::switch_cpus.inst 29885.136148                       # average overall miss latency in ticks ((Tick/Count))
system.cpu.icache.demandAvgMissLatency::total 29885.136148                       # average overall miss latency in ticks ((Tick/Count))
system.cpu.icache.overallAvgMissLatency::switch_cpus.inst 29885.136148                       # average overall miss latency ((Tick/Count))
system.cpu.icache.overallAvgMissLatency::total 29885.136148                       # average overall miss latency ((Tick/Count))
system.cpu.icache.blockedCycles::no_mshrs        13583                       # number of cycles access was blocked (Cycle)
system.cpu.icache.blockedCycles::no_targets            0                       # number of cycles access was blocked (Cycle)
system.cpu.icache.blockedCauses::no_mshrs          349                       # number of times access was blocked (Count)
system.cpu.icache.blockedCauses::no_targets            0                       # number of times access was blocked (Count)
system.cpu.icache.avgBlocked::no_mshrs      38.919771                       # average number of cycles each access was blocked ((Cycle/Count))
system.cpu.icache.avgBlocked::no_targets          nan                       # average number of cycles each access was blocked ((Cycle/Count))
system.cpu.icache.writebacks::writebacks        91151                       # number of writebacks (Count)
system.cpu.icache.writebacks::total             91151                       # number of writebacks (Count)
system.cpu.icache.demandMshrHits::switch_cpus.inst        14077                       # number of demand (read+write) MSHR hits (Count)
system.cpu.icache.demandMshrHits::total         14077                       # number of demand (read+write) MSHR hits (Count)
system.cpu.icache.overallMshrHits::switch_cpus.inst        14077                       # number of overall MSHR hits (Count)
system.cpu.icache.overallMshrHits::total        14077                       # number of overall MSHR hits (Count)
system.cpu.icache.demandMshrMisses::switch_cpus.inst        92175                       # number of demand (read+write) MSHR misses (Count)
system.cpu.icache.demandMshrMisses::total        92175                       # number of demand (read+write) MSHR misses (Count)
system.cpu.icache.overallMshrMisses::switch_cpus.inst        92175                       # number of overall MSHR misses (Count)
system.cpu.icache.overallMshrMisses::total        92175                       # number of overall MSHR misses (Count)
system.cpu.icache.demandMshrMissLatency::switch_cpus.inst   2627750489                       # number of demand (read+write) MSHR miss ticks (Tick)
system.cpu.icache.demandMshrMissLatency::total   2627750489                       # number of demand (read+write) MSHR miss ticks (Tick)
system.cpu.icache.overallMshrMissLatency::switch_cpus.inst   2627750489                       # number of overall MSHR miss ticks (Tick)
system.cpu.icache.overallMshrMissLatency::total   2627750489                       # number of overall MSHR miss ticks (Tick)
system.cpu.icache.demandMshrMissRate::switch_cpus.inst     0.063180                       # mshr miss ratio for demand accesses (Ratio)
system.cpu.icache.demandMshrMissRate::total     0.063180                       # mshr miss ratio for demand accesses (Ratio)
system.cpu.icache.overallMshrMissRate::switch_cpus.inst     0.063180                       # mshr miss ratio for overall accesses (Ratio)
system.cpu.icache.overallMshrMissRate::total     0.063180                       # mshr miss ratio for overall accesses (Ratio)
system.cpu.icache.demandAvgMshrMissLatency::switch_cpus.inst 28508.277613                       # average overall mshr miss latency ((Tick/Count))
system.cpu.icache.demandAvgMshrMissLatency::total 28508.277613                       # average overall mshr miss latency ((Tick/Count))
system.cpu.icache.overallAvgMshrMissLatency::switch_cpus.inst 28508.277613                       # average overall mshr miss latency ((Tick/Count))
system.cpu.icache.overallAvgMshrMissLatency::total 28508.277613                       # average overall mshr miss latency ((Tick/Count))
system.cpu.icache.replacements                  91151                       # number of replacements (Count)
system.cpu.icache.ReadReq.hits::switch_cpus.inst      1352672                       # number of ReadReq hits (Count)
system.cpu.icache.ReadReq.hits::total         1352672                       # number of ReadReq hits (Count)
system.cpu.icache.ReadReq.misses::switch_cpus.inst       106252                       # number of ReadReq misses (Count)
system.cpu.icache.ReadReq.misses::total        106252                       # number of ReadReq misses (Count)
system.cpu.icache.ReadReq.missLatency::switch_cpus.inst   3175355486                       # number of ReadReq miss ticks (Tick)
system.cpu.icache.ReadReq.missLatency::total   3175355486                       # number of ReadReq miss ticks (Tick)
system.cpu.icache.ReadReq.accesses::switch_cpus.inst      1458924                       # number of ReadReq accesses(hits+misses) (Count)
system.cpu.icache.ReadReq.accesses::total      1458924                       # number of ReadReq accesses(hits+misses) (Count)
system.cpu.icache.ReadReq.missRate::switch_cpus.inst     0.072829                       # miss rate for ReadReq accesses (Ratio)
system.cpu.icache.ReadReq.missRate::total     0.072829                       # miss rate for ReadReq accesses (Ratio)
system.cpu.icache.ReadReq.avgMissLatency::switch_cpus.inst 29885.136148                       # average ReadReq miss latency ((Tick/Count))
system.cpu.icache.ReadReq.avgMissLatency::total 29885.136148                       # average ReadReq miss latency ((Tick/Count))
system.cpu.icache.ReadReq.mshrHits::switch_cpus.inst        14077                       # number of ReadReq MSHR hits (Count)
system.cpu.icache.ReadReq.mshrHits::total        14077                       # number of ReadReq MSHR hits (Count)
system.cpu.icache.ReadReq.mshrMisses::switch_cpus.inst        92175                       # number of ReadReq MSHR misses (Count)
system.cpu.icache.ReadReq.mshrMisses::total        92175                       # number of ReadReq MSHR misses (Count)
system.cpu.icache.ReadReq.mshrMissLatency::switch_cpus.inst   2627750489                       # number of ReadReq MSHR miss ticks (Tick)
system.cpu.icache.ReadReq.mshrMissLatency::total   2627750489                       # number of ReadReq MSHR miss ticks (Tick)
system.cpu.icache.ReadReq.mshrMissRate::switch_cpus.inst     0.063180                       # mshr miss rate for ReadReq accesses (Ratio)
system.cpu.icache.ReadReq.mshrMissRate::total     0.063180                       # mshr miss rate for ReadReq accesses (Ratio)
system.cpu.icache.ReadReq.avgMshrMissLatency::switch_cpus.inst 28508.277613                       # average ReadReq mshr miss latency ((Tick/Count))
system.cpu.icache.ReadReq.avgMshrMissLatency::total 28508.277613                       # average ReadReq mshr miss latency ((Tick/Count))
system.cpu.icache.power_state.pwrStateResidencyTicks::UNDEFINED 3959187068000                       # Cumulative time (in ticks) in various power states (Tick)
system.cpu.icache.tags.tagsInUse             1.779097                       # Average ticks per tags in use ((Tick/Count))
system.cpu.icache.tags.totalRefs              1444847                       # Total number of references to valid blocks. (Count)
system.cpu.icache.tags.sampledRefs              92175                       # Sample count of references to valid blocks. (Count)
system.cpu.icache.tags.avgRefs              15.675042                       # Average number of references to valid blocks. ((Count/Count))
system.cpu.icache.tags.warmupTick        2502045239500                       # The tick when the warmup percentage was hit. (Tick)
system.cpu.icache.tags.occupancies::switch_cpus.inst     1.779097                       # Average occupied blocks per tick, per requestor ((Count/Tick))
system.cpu.icache.tags.avgOccs::switch_cpus.inst     0.001737                       # Average percentage of cache occupancy ((Ratio/Tick))
system.cpu.icache.tags.avgOccs::total        0.001737                       # Average percentage of cache occupancy ((Ratio/Tick))
system.cpu.icache.tags.tagAccesses            5927871                       # Number of tag accesses (Count)
system.cpu.icache.tags.dataAccesses           5927871                       # Number of data accesses (Count)
system.cpu.icache.tags.power_state.pwrStateResidencyTicks::UNDEFINED 3959187068000                       # Cumulative time (in ticks) in various power states (Tick)
system.cpu.l2cache.demandHits::switch_cpus.mmu.dtb_walker         7698                       # number of demand (read+write) hits (Count)
system.cpu.l2cache.demandHits::switch_cpus.mmu.itb_walker          729                       # number of demand (read+write) hits (Count)
system.cpu.l2cache.demandHits::switch_cpus.inst        64668                       # number of demand (read+write) hits (Count)
system.cpu.l2cache.demandHits::switch_cpus.data        21715                       # number of demand (read+write) hits (Count)
system.cpu.l2cache.demandHits::total            94810                       # number of demand (read+write) hits (Count)
system.cpu.l2cache.overallHits::switch_cpus.mmu.dtb_walker         7698                       # number of overall hits (Count)
system.cpu.l2cache.overallHits::switch_cpus.mmu.itb_walker          729                       # number of overall hits (Count)
system.cpu.l2cache.overallHits::switch_cpus.inst        64668                       # number of overall hits (Count)
system.cpu.l2cache.overallHits::switch_cpus.data        21715                       # number of overall hits (Count)
system.cpu.l2cache.overallHits::total           94810                       # number of overall hits (Count)
system.cpu.l2cache.demandMisses::switch_cpus.mmu.dtb_walker         1040                       # number of demand (read+write) misses (Count)
system.cpu.l2cache.demandMisses::switch_cpus.mmu.itb_walker          173                       # number of demand (read+write) misses (Count)
system.cpu.l2cache.demandMisses::switch_cpus.inst        27507                       # number of demand (read+write) misses (Count)
system.cpu.l2cache.demandMisses::switch_cpus.data        34367                       # number of demand (read+write) misses (Count)
system.cpu.l2cache.demandMisses::total          63087                       # number of demand (read+write) misses (Count)
system.cpu.l2cache.overallMisses::switch_cpus.mmu.dtb_walker         1040                       # number of overall misses (Count)
system.cpu.l2cache.overallMisses::switch_cpus.mmu.itb_walker          173                       # number of overall misses (Count)
system.cpu.l2cache.overallMisses::switch_cpus.inst        27507                       # number of overall misses (Count)
system.cpu.l2cache.overallMisses::switch_cpus.data        34367                       # number of overall misses (Count)
system.cpu.l2cache.overallMisses::total         63087                       # number of overall misses (Count)
system.cpu.l2cache.demandMissLatency::switch_cpus.mmu.dtb_walker     76554582                       # number of demand (read+write) miss ticks (Tick)
system.cpu.l2cache.demandMissLatency::switch_cpus.mmu.itb_walker     16623365                       # number of demand (read+write) miss ticks (Tick)
system.cpu.l2cache.demandMissLatency::switch_cpus.inst   1802599000                       # number of demand (read+write) miss ticks (Tick)
system.cpu.l2cache.demandMissLatency::switch_cpus.data   2505056000                       # number of demand (read+write) miss ticks (Tick)
system.cpu.l2cache.demandMissLatency::total   4400832947                       # number of demand (read+write) miss ticks (Tick)
system.cpu.l2cache.overallMissLatency::switch_cpus.mmu.dtb_walker     76554582                       # number of overall miss ticks (Tick)
system.cpu.l2cache.overallMissLatency::switch_cpus.mmu.itb_walker     16623365                       # number of overall miss ticks (Tick)
system.cpu.l2cache.overallMissLatency::switch_cpus.inst   1802599000                       # number of overall miss ticks (Tick)
system.cpu.l2cache.overallMissLatency::switch_cpus.data   2505056000                       # number of overall miss ticks (Tick)
system.cpu.l2cache.overallMissLatency::total   4400832947                       # number of overall miss ticks (Tick)
system.cpu.l2cache.demandAccesses::switch_cpus.mmu.dtb_walker         8738                       # number of demand (read+write) accesses (Count)
system.cpu.l2cache.demandAccesses::switch_cpus.mmu.itb_walker          902                       # number of demand (read+write) accesses (Count)
system.cpu.l2cache.demandAccesses::switch_cpus.inst        92175                       # number of demand (read+write) accesses (Count)
system.cpu.l2cache.demandAccesses::switch_cpus.data        56082                       # number of demand (read+write) accesses (Count)
system.cpu.l2cache.demandAccesses::total       157897                       # number of demand (read+write) accesses (Count)
system.cpu.l2cache.overallAccesses::switch_cpus.mmu.dtb_walker         8738                       # number of overall (read+write) accesses (Count)
system.cpu.l2cache.overallAccesses::switch_cpus.mmu.itb_walker          902                       # number of overall (read+write) accesses (Count)
system.cpu.l2cache.overallAccesses::switch_cpus.inst        92175                       # number of overall (read+write) accesses (Count)
system.cpu.l2cache.overallAccesses::switch_cpus.data        56082                       # number of overall (read+write) accesses (Count)
system.cpu.l2cache.overallAccesses::total       157897                       # number of overall (read+write) accesses (Count)
system.cpu.l2cache.demandMissRate::switch_cpus.mmu.dtb_walker     0.119020                       # miss rate for demand accesses (Ratio)
system.cpu.l2cache.demandMissRate::switch_cpus.mmu.itb_walker     0.191796                       # miss rate for demand accesses (Ratio)
system.cpu.l2cache.demandMissRate::switch_cpus.inst     0.298421                       # miss rate for demand accesses (Ratio)
system.cpu.l2cache.demandMissRate::switch_cpus.data     0.612799                       # miss rate for demand accesses (Ratio)
system.cpu.l2cache.demandMissRate::total     0.399545                       # miss rate for demand accesses (Ratio)
system.cpu.l2cache.overallMissRate::switch_cpus.mmu.dtb_walker     0.119020                       # miss rate for overall accesses (Ratio)
system.cpu.l2cache.overallMissRate::switch_cpus.mmu.itb_walker     0.191796                       # miss rate for overall accesses (Ratio)
system.cpu.l2cache.overallMissRate::switch_cpus.inst     0.298421                       # miss rate for overall accesses (Ratio)
system.cpu.l2cache.overallMissRate::switch_cpus.data     0.612799                       # miss rate for overall accesses (Ratio)
system.cpu.l2cache.overallMissRate::total     0.399545                       # miss rate for overall accesses (Ratio)
system.cpu.l2cache.demandAvgMissLatency::switch_cpus.mmu.dtb_walker 73610.175000                       # average overall miss latency in ticks ((Tick/Count))
system.cpu.l2cache.demandAvgMissLatency::switch_cpus.mmu.itb_walker 96088.815029                       # average overall miss latency in ticks ((Tick/Count))
system.cpu.l2cache.demandAvgMissLatency::switch_cpus.inst 65532.373578                       # average overall miss latency in ticks ((Tick/Count))
system.cpu.l2cache.demandAvgMissLatency::switch_cpus.data 72891.320162                       # average overall miss latency in ticks ((Tick/Count))
system.cpu.l2cache.demandAvgMissLatency::total 69758.158527                       # average overall miss latency in ticks ((Tick/Count))
system.cpu.l2cache.overallAvgMissLatency::switch_cpus.mmu.dtb_walker 73610.175000                       # average overall miss latency ((Tick/Count))
system.cpu.l2cache.overallAvgMissLatency::switch_cpus.mmu.itb_walker 96088.815029                       # average overall miss latency ((Tick/Count))
system.cpu.l2cache.overallAvgMissLatency::switch_cpus.inst 65532.373578                       # average overall miss latency ((Tick/Count))
system.cpu.l2cache.overallAvgMissLatency::switch_cpus.data 72891.320162                       # average overall miss latency ((Tick/Count))
system.cpu.l2cache.overallAvgMissLatency::total 69758.158527                       # average overall miss latency ((Tick/Count))
system.cpu.l2cache.blockedCycles::no_mshrs            0                       # number of cycles access was blocked (Cycle)
system.cpu.l2cache.blockedCycles::no_targets            0                       # number of cycles access was blocked (Cycle)
system.cpu.l2cache.blockedCauses::no_mshrs            0                       # number of times access was blocked (Count)
system.cpu.l2cache.blockedCauses::no_targets            0                       # number of times access was blocked (Count)
system.cpu.l2cache.avgBlocked::no_mshrs           nan                       # average number of cycles each access was blocked ((Cycle/Count))
system.cpu.l2cache.avgBlocked::no_targets          nan                       # average number of cycles each access was blocked ((Cycle/Count))
system.cpu.l2cache.writebacks::writebacks        20677                       # number of writebacks (Count)
system.cpu.l2cache.writebacks::total            20677                       # number of writebacks (Count)
system.cpu.l2cache.demandMshrMisses::switch_cpus.mmu.dtb_walker         1040                       # number of demand (read+write) MSHR misses (Count)
system.cpu.l2cache.demandMshrMisses::switch_cpus.mmu.itb_walker          173                       # number of demand (read+write) MSHR misses (Count)
system.cpu.l2cache.demandMshrMisses::switch_cpus.inst        27507                       # number of demand (read+write) MSHR misses (Count)
system.cpu.l2cache.demandMshrMisses::switch_cpus.data        34367                       # number of demand (read+write) MSHR misses (Count)
system.cpu.l2cache.demandMshrMisses::total        63087                       # number of demand (read+write) MSHR misses (Count)
system.cpu.l2cache.overallMshrMisses::switch_cpus.mmu.dtb_walker         1040                       # number of overall MSHR misses (Count)
system.cpu.l2cache.overallMshrMisses::switch_cpus.mmu.itb_walker          173                       # number of overall MSHR misses (Count)
system.cpu.l2cache.overallMshrMisses::switch_cpus.inst        27507                       # number of overall MSHR misses (Count)
system.cpu.l2cache.overallMshrMisses::switch_cpus.data        34367                       # number of overall MSHR misses (Count)
system.cpu.l2cache.overallMshrMisses::total        63087                       # number of overall MSHR misses (Count)
system.cpu.l2cache.overallMshrUncacheable::switch_cpus.data         3805                       # number of overall MSHR uncacheable misses (Count)
system.cpu.l2cache.overallMshrUncacheable::total         3805                       # number of overall MSHR uncacheable misses (Count)
system.cpu.l2cache.demandMshrMissLatency::switch_cpus.mmu.dtb_walker     66154582                       # number of demand (read+write) MSHR miss ticks (Tick)
system.cpu.l2cache.demandMshrMissLatency::switch_cpus.mmu.itb_walker     14893365                       # number of demand (read+write) MSHR miss ticks (Tick)
system.cpu.l2cache.demandMshrMissLatency::switch_cpus.inst   1527529000                       # number of demand (read+write) MSHR miss ticks (Tick)
system.cpu.l2cache.demandMshrMissLatency::switch_cpus.data   2161386000                       # number of demand (read+write) MSHR miss ticks (Tick)
system.cpu.l2cache.demandMshrMissLatency::total   3769962947                       # number of demand (read+write) MSHR miss ticks (Tick)
system.cpu.l2cache.overallMshrMissLatency::switch_cpus.mmu.dtb_walker     66154582                       # number of overall MSHR miss ticks (Tick)
system.cpu.l2cache.overallMshrMissLatency::switch_cpus.mmu.itb_walker     14893365                       # number of overall MSHR miss ticks (Tick)
system.cpu.l2cache.overallMshrMissLatency::switch_cpus.inst   1527529000                       # number of overall MSHR miss ticks (Tick)
system.cpu.l2cache.overallMshrMissLatency::switch_cpus.data   2161386000                       # number of overall MSHR miss ticks (Tick)
system.cpu.l2cache.overallMshrMissLatency::total   3769962947                       # number of overall MSHR miss ticks (Tick)
system.cpu.l2cache.overallMshrUncacheableLatency::switch_cpus.data    295901000                       # number of overall MSHR uncacheable ticks (Tick)
system.cpu.l2cache.overallMshrUncacheableLatency::total    295901000                       # number of overall MSHR uncacheable ticks (Tick)
system.cpu.l2cache.demandMshrMissRate::switch_cpus.mmu.dtb_walker     0.119020                       # mshr miss ratio for demand accesses (Ratio)
system.cpu.l2cache.demandMshrMissRate::switch_cpus.mmu.itb_walker     0.191796                       # mshr miss ratio for demand accesses (Ratio)
system.cpu.l2cache.demandMshrMissRate::switch_cpus.inst     0.298421                       # mshr miss ratio for demand accesses (Ratio)
system.cpu.l2cache.demandMshrMissRate::switch_cpus.data     0.612799                       # mshr miss ratio for demand accesses (Ratio)
system.cpu.l2cache.demandMshrMissRate::total     0.399545                       # mshr miss ratio for demand accesses (Ratio)
system.cpu.l2cache.overallMshrMissRate::switch_cpus.mmu.dtb_walker     0.119020                       # mshr miss ratio for overall accesses (Ratio)
system.cpu.l2cache.overallMshrMissRate::switch_cpus.mmu.itb_walker     0.191796                       # mshr miss ratio for overall accesses (Ratio)
system.cpu.l2cache.overallMshrMissRate::switch_cpus.inst     0.298421                       # mshr miss ratio for overall accesses (Ratio)
system.cpu.l2cache.overallMshrMissRate::switch_cpus.data     0.612799                       # mshr miss ratio for overall accesses (Ratio)
system.cpu.l2cache.overallMshrMissRate::total     0.399545                       # mshr miss ratio for overall accesses (Ratio)
system.cpu.l2cache.demandAvgMshrMissLatency::switch_cpus.mmu.dtb_walker 63610.175000                       # average overall mshr miss latency ((Tick/Count))
system.cpu.l2cache.demandAvgMshrMissLatency::switch_cpus.mmu.itb_walker 86088.815029                       # average overall mshr miss latency ((Tick/Count))
system.cpu.l2cache.demandAvgMshrMissLatency::switch_cpus.inst 55532.373578                       # average overall mshr miss latency ((Tick/Count))
system.cpu.l2cache.demandAvgMshrMissLatency::switch_cpus.data 62891.320162                       # average overall mshr miss latency ((Tick/Count))
system.cpu.l2cache.demandAvgMshrMissLatency::total 59758.158527                       # average overall mshr miss latency ((Tick/Count))
system.cpu.l2cache.overallAvgMshrMissLatency::switch_cpus.mmu.dtb_walker 63610.175000                       # average overall mshr miss latency ((Tick/Count))
system.cpu.l2cache.overallAvgMshrMissLatency::switch_cpus.mmu.itb_walker 86088.815029                       # average overall mshr miss latency ((Tick/Count))
system.cpu.l2cache.overallAvgMshrMissLatency::switch_cpus.inst 55532.373578                       # average overall mshr miss latency ((Tick/Count))
system.cpu.l2cache.overallAvgMshrMissLatency::switch_cpus.data 62891.320162                       # average overall mshr miss latency ((Tick/Count))
system.cpu.l2cache.overallAvgMshrMissLatency::total 59758.158527                       # average overall mshr miss latency ((Tick/Count))
system.cpu.l2cache.overallAvgMshrUncacheableLatency::switch_cpus.data 77766.360053                       # average overall mshr uncacheable latency ((Tick/Count))
system.cpu.l2cache.overallAvgMshrUncacheableLatency::total 77766.360053                       # average overall mshr uncacheable latency ((Tick/Count))
system.cpu.l2cache.replacements                 61448                       # number of replacements (Count)
system.cpu.l2cache.CleanEvict.mshrMisses::writebacks          275                       # number of CleanEvict MSHR misses (Count)
system.cpu.l2cache.CleanEvict.mshrMisses::total          275                       # number of CleanEvict MSHR misses (Count)
system.cpu.l2cache.CleanEvict.mshrMissRate::writebacks          inf                       # mshr miss rate for CleanEvict accesses (Ratio)
system.cpu.l2cache.CleanEvict.mshrMissRate::total          inf                       # mshr miss rate for CleanEvict accesses (Ratio)
system.cpu.l2cache.InvalidateReq.hits::switch_cpus.data          373                       # number of InvalidateReq hits (Count)
system.cpu.l2cache.InvalidateReq.hits::total          373                       # number of InvalidateReq hits (Count)
system.cpu.l2cache.InvalidateReq.misses::switch_cpus.data         4899                       # number of InvalidateReq misses (Count)
system.cpu.l2cache.InvalidateReq.misses::total         4899                       # number of InvalidateReq misses (Count)
system.cpu.l2cache.InvalidateReq.missLatency::switch_cpus.data        54500                       # number of InvalidateReq miss ticks (Tick)
system.cpu.l2cache.InvalidateReq.missLatency::total        54500                       # number of InvalidateReq miss ticks (Tick)
system.cpu.l2cache.InvalidateReq.accesses::switch_cpus.data         5272                       # number of InvalidateReq accesses(hits+misses) (Count)
system.cpu.l2cache.InvalidateReq.accesses::total         5272                       # number of InvalidateReq accesses(hits+misses) (Count)
system.cpu.l2cache.InvalidateReq.missRate::switch_cpus.data     0.929249                       # miss rate for InvalidateReq accesses (Ratio)
system.cpu.l2cache.InvalidateReq.missRate::total     0.929249                       # miss rate for InvalidateReq accesses (Ratio)
system.cpu.l2cache.InvalidateReq.avgMissLatency::switch_cpus.data    11.124719                       # average InvalidateReq miss latency ((Tick/Count))
system.cpu.l2cache.InvalidateReq.avgMissLatency::total    11.124719                       # average InvalidateReq miss latency ((Tick/Count))
system.cpu.l2cache.InvalidateReq.mshrMisses::switch_cpus.data         4899                       # number of InvalidateReq MSHR misses (Count)
system.cpu.l2cache.InvalidateReq.mshrMisses::total         4899                       # number of InvalidateReq MSHR misses (Count)
system.cpu.l2cache.InvalidateReq.mshrMissLatency::switch_cpus.data    182190500                       # number of InvalidateReq MSHR miss ticks (Tick)
system.cpu.l2cache.InvalidateReq.mshrMissLatency::total    182190500                       # number of InvalidateReq MSHR miss ticks (Tick)
system.cpu.l2cache.InvalidateReq.mshrMissRate::switch_cpus.data     0.929249                       # mshr miss rate for InvalidateReq accesses (Ratio)
system.cpu.l2cache.InvalidateReq.mshrMissRate::total     0.929249                       # mshr miss rate for InvalidateReq accesses (Ratio)
system.cpu.l2cache.InvalidateReq.avgMshrMissLatency::switch_cpus.data 37189.324352                       # average InvalidateReq mshr miss latency ((Tick/Count))
system.cpu.l2cache.InvalidateReq.avgMshrMissLatency::total 37189.324352                       # average InvalidateReq mshr miss latency ((Tick/Count))
system.cpu.l2cache.ReadCleanReq.hits::switch_cpus.inst        64668                       # number of ReadCleanReq hits (Count)
system.cpu.l2cache.ReadCleanReq.hits::total        64668                       # number of ReadCleanReq hits (Count)
system.cpu.l2cache.ReadCleanReq.misses::switch_cpus.inst        27507                       # number of ReadCleanReq misses (Count)
system.cpu.l2cache.ReadCleanReq.misses::total        27507                       # number of ReadCleanReq misses (Count)
system.cpu.l2cache.ReadCleanReq.missLatency::switch_cpus.inst   1802599000                       # number of ReadCleanReq miss ticks (Tick)
system.cpu.l2cache.ReadCleanReq.missLatency::total   1802599000                       # number of ReadCleanReq miss ticks (Tick)
system.cpu.l2cache.ReadCleanReq.accesses::switch_cpus.inst        92175                       # number of ReadCleanReq accesses(hits+misses) (Count)
system.cpu.l2cache.ReadCleanReq.accesses::total        92175                       # number of ReadCleanReq accesses(hits+misses) (Count)
system.cpu.l2cache.ReadCleanReq.missRate::switch_cpus.inst     0.298421                       # miss rate for ReadCleanReq accesses (Ratio)
system.cpu.l2cache.ReadCleanReq.missRate::total     0.298421                       # miss rate for ReadCleanReq accesses (Ratio)
system.cpu.l2cache.ReadCleanReq.avgMissLatency::switch_cpus.inst 65532.373578                       # average ReadCleanReq miss latency ((Tick/Count))
system.cpu.l2cache.ReadCleanReq.avgMissLatency::total 65532.373578                       # average ReadCleanReq miss latency ((Tick/Count))
system.cpu.l2cache.ReadCleanReq.mshrMisses::switch_cpus.inst        27507                       # number of ReadCleanReq MSHR misses (Count)
system.cpu.l2cache.ReadCleanReq.mshrMisses::total        27507                       # number of ReadCleanReq MSHR misses (Count)
system.cpu.l2cache.ReadCleanReq.mshrMissLatency::switch_cpus.inst   1527529000                       # number of ReadCleanReq MSHR miss ticks (Tick)
system.cpu.l2cache.ReadCleanReq.mshrMissLatency::total   1527529000                       # number of ReadCleanReq MSHR miss ticks (Tick)
system.cpu.l2cache.ReadCleanReq.mshrMissRate::switch_cpus.inst     0.298421                       # mshr miss rate for ReadCleanReq accesses (Ratio)
system.cpu.l2cache.ReadCleanReq.mshrMissRate::total     0.298421                       # mshr miss rate for ReadCleanReq accesses (Ratio)
system.cpu.l2cache.ReadCleanReq.avgMshrMissLatency::switch_cpus.inst 55532.373578                       # average ReadCleanReq mshr miss latency ((Tick/Count))
system.cpu.l2cache.ReadCleanReq.avgMshrMissLatency::total 55532.373578                       # average ReadCleanReq mshr miss latency ((Tick/Count))
system.cpu.l2cache.ReadExReq.hits::switch_cpus.data         4094                       # number of ReadExReq hits (Count)
system.cpu.l2cache.ReadExReq.hits::total         4094                       # number of ReadExReq hits (Count)
system.cpu.l2cache.ReadExReq.misses::switch_cpus.data        10102                       # number of ReadExReq misses (Count)
system.cpu.l2cache.ReadExReq.misses::total        10102                       # number of ReadExReq misses (Count)
system.cpu.l2cache.ReadExReq.missLatency::switch_cpus.data    743260000                       # number of ReadExReq miss ticks (Tick)
system.cpu.l2cache.ReadExReq.missLatency::total    743260000                       # number of ReadExReq miss ticks (Tick)
system.cpu.l2cache.ReadExReq.accesses::switch_cpus.data        14196                       # number of ReadExReq accesses(hits+misses) (Count)
system.cpu.l2cache.ReadExReq.accesses::total        14196                       # number of ReadExReq accesses(hits+misses) (Count)
system.cpu.l2cache.ReadExReq.missRate::switch_cpus.data     0.711609                       # miss rate for ReadExReq accesses (Ratio)
system.cpu.l2cache.ReadExReq.missRate::total     0.711609                       # miss rate for ReadExReq accesses (Ratio)
system.cpu.l2cache.ReadExReq.avgMissLatency::switch_cpus.data 73575.529598                       # average ReadExReq miss latency ((Tick/Count))
system.cpu.l2cache.ReadExReq.avgMissLatency::total 73575.529598                       # average ReadExReq miss latency ((Tick/Count))
system.cpu.l2cache.ReadExReq.mshrMisses::switch_cpus.data        10102                       # number of ReadExReq MSHR misses (Count)
system.cpu.l2cache.ReadExReq.mshrMisses::total        10102                       # number of ReadExReq MSHR misses (Count)
system.cpu.l2cache.ReadExReq.mshrMissLatency::switch_cpus.data    642240000                       # number of ReadExReq MSHR miss ticks (Tick)
system.cpu.l2cache.ReadExReq.mshrMissLatency::total    642240000                       # number of ReadExReq MSHR miss ticks (Tick)
system.cpu.l2cache.ReadExReq.mshrMissRate::switch_cpus.data     0.711609                       # mshr miss rate for ReadExReq accesses (Ratio)
system.cpu.l2cache.ReadExReq.mshrMissRate::total     0.711609                       # mshr miss rate for ReadExReq accesses (Ratio)
system.cpu.l2cache.ReadExReq.avgMshrMissLatency::switch_cpus.data 63575.529598                       # average ReadExReq mshr miss latency ((Tick/Count))
system.cpu.l2cache.ReadExReq.avgMshrMissLatency::total 63575.529598                       # average ReadExReq mshr miss latency ((Tick/Count))
system.cpu.l2cache.ReadReq.hits::switch_cpus.mmu.dtb_walker         7698                       # number of ReadReq hits (Count)
system.cpu.l2cache.ReadReq.hits::switch_cpus.mmu.itb_walker          729                       # number of ReadReq hits (Count)
system.cpu.l2cache.ReadReq.hits::total           8427                       # number of ReadReq hits (Count)
system.cpu.l2cache.ReadReq.misses::switch_cpus.mmu.dtb_walker         1040                       # number of ReadReq misses (Count)
system.cpu.l2cache.ReadReq.misses::switch_cpus.mmu.itb_walker          173                       # number of ReadReq misses (Count)
system.cpu.l2cache.ReadReq.misses::total         1213                       # number of ReadReq misses (Count)
system.cpu.l2cache.ReadReq.missLatency::switch_cpus.mmu.dtb_walker     76554582                       # number of ReadReq miss ticks (Tick)
system.cpu.l2cache.ReadReq.missLatency::switch_cpus.mmu.itb_walker     16623365                       # number of ReadReq miss ticks (Tick)
system.cpu.l2cache.ReadReq.missLatency::total     93177947                       # number of ReadReq miss ticks (Tick)
system.cpu.l2cache.ReadReq.accesses::switch_cpus.mmu.dtb_walker         8738                       # number of ReadReq accesses(hits+misses) (Count)
system.cpu.l2cache.ReadReq.accesses::switch_cpus.mmu.itb_walker          902                       # number of ReadReq accesses(hits+misses) (Count)
system.cpu.l2cache.ReadReq.accesses::total         9640                       # number of ReadReq accesses(hits+misses) (Count)
system.cpu.l2cache.ReadReq.missRate::switch_cpus.mmu.dtb_walker     0.119020                       # miss rate for ReadReq accesses (Ratio)
system.cpu.l2cache.ReadReq.missRate::switch_cpus.mmu.itb_walker     0.191796                       # miss rate for ReadReq accesses (Ratio)
system.cpu.l2cache.ReadReq.missRate::total     0.125830                       # miss rate for ReadReq accesses (Ratio)
system.cpu.l2cache.ReadReq.avgMissLatency::switch_cpus.mmu.dtb_walker 73610.175000                       # average ReadReq miss latency ((Tick/Count))
system.cpu.l2cache.ReadReq.avgMissLatency::switch_cpus.mmu.itb_walker 96088.815029                       # average ReadReq miss latency ((Tick/Count))
system.cpu.l2cache.ReadReq.avgMissLatency::total 76816.114592                       # average ReadReq miss latency ((Tick/Count))
system.cpu.l2cache.ReadReq.mshrMisses::switch_cpus.mmu.dtb_walker         1040                       # number of ReadReq MSHR misses (Count)
system.cpu.l2cache.ReadReq.mshrMisses::switch_cpus.mmu.itb_walker          173                       # number of ReadReq MSHR misses (Count)
system.cpu.l2cache.ReadReq.mshrMisses::total         1213                       # number of ReadReq MSHR misses (Count)
system.cpu.l2cache.ReadReq.mshrUncacheable::switch_cpus.data         2953                       # number of ReadReq MSHR uncacheable (Count)
system.cpu.l2cache.ReadReq.mshrUncacheable::total         2953                       # number of ReadReq MSHR uncacheable (Count)
system.cpu.l2cache.ReadReq.mshrMissLatency::switch_cpus.mmu.dtb_walker     66154582                       # number of ReadReq MSHR miss ticks (Tick)
system.cpu.l2cache.ReadReq.mshrMissLatency::switch_cpus.mmu.itb_walker     14893365                       # number of ReadReq MSHR miss ticks (Tick)
system.cpu.l2cache.ReadReq.mshrMissLatency::total     81047947                       # number of ReadReq MSHR miss ticks (Tick)
system.cpu.l2cache.ReadReq.mshrUncacheableLatency::switch_cpus.data    295901000                       # number of ReadReq MSHR uncacheable ticks (Tick)
system.cpu.l2cache.ReadReq.mshrUncacheableLatency::total    295901000                       # number of ReadReq MSHR uncacheable ticks (Tick)
system.cpu.l2cache.ReadReq.mshrMissRate::switch_cpus.mmu.dtb_walker     0.119020                       # mshr miss rate for ReadReq accesses (Ratio)
system.cpu.l2cache.ReadReq.mshrMissRate::switch_cpus.mmu.itb_walker     0.191796                       # mshr miss rate for ReadReq accesses (Ratio)
system.cpu.l2cache.ReadReq.mshrMissRate::total     0.125830                       # mshr miss rate for ReadReq accesses (Ratio)
system.cpu.l2cache.ReadReq.avgMshrMissLatency::switch_cpus.mmu.dtb_walker 63610.175000                       # average ReadReq mshr miss latency ((Tick/Count))
system.cpu.l2cache.ReadReq.avgMshrMissLatency::switch_cpus.mmu.itb_walker 86088.815029                       # average ReadReq mshr miss latency ((Tick/Count))
system.cpu.l2cache.ReadReq.avgMshrMissLatency::total 66816.114592                       # average ReadReq mshr miss latency ((Tick/Count))
system.cpu.l2cache.ReadReq.avgMshrUncacheableLatency::switch_cpus.data 100203.521842                       # average ReadReq mshr uncacheable latency ((Tick/Count))
system.cpu.l2cache.ReadReq.avgMshrUncacheableLatency::total 100203.521842                       # average ReadReq mshr uncacheable latency ((Tick/Count))
system.cpu.l2cache.ReadSharedReq.hits::switch_cpus.data        17621                       # number of ReadSharedReq hits (Count)
system.cpu.l2cache.ReadSharedReq.hits::total        17621                       # number of ReadSharedReq hits (Count)
system.cpu.l2cache.ReadSharedReq.misses::switch_cpus.data        24265                       # number of ReadSharedReq misses (Count)
system.cpu.l2cache.ReadSharedReq.misses::total        24265                       # number of ReadSharedReq misses (Count)
system.cpu.l2cache.ReadSharedReq.missLatency::switch_cpus.data   1761796000                       # number of ReadSharedReq miss ticks (Tick)
system.cpu.l2cache.ReadSharedReq.missLatency::total   1761796000                       # number of ReadSharedReq miss ticks (Tick)
system.cpu.l2cache.ReadSharedReq.accesses::switch_cpus.data        41886                       # number of ReadSharedReq accesses(hits+misses) (Count)
system.cpu.l2cache.ReadSharedReq.accesses::total        41886                       # number of ReadSharedReq accesses(hits+misses) (Count)
system.cpu.l2cache.ReadSharedReq.missRate::switch_cpus.data     0.579311                       # miss rate for ReadSharedReq accesses (Ratio)
system.cpu.l2cache.ReadSharedReq.missRate::total     0.579311                       # miss rate for ReadSharedReq accesses (Ratio)
system.cpu.l2cache.ReadSharedReq.avgMissLatency::switch_cpus.data 72606.470225                       # average ReadSharedReq miss latency ((Tick/Count))
system.cpu.l2cache.ReadSharedReq.avgMissLatency::total 72606.470225                       # average ReadSharedReq miss latency ((Tick/Count))
system.cpu.l2cache.ReadSharedReq.mshrMisses::switch_cpus.data        24265                       # number of ReadSharedReq MSHR misses (Count)
system.cpu.l2cache.ReadSharedReq.mshrMisses::total        24265                       # number of ReadSharedReq MSHR misses (Count)
system.cpu.l2cache.ReadSharedReq.mshrMissLatency::switch_cpus.data   1519146000                       # number of ReadSharedReq MSHR miss ticks (Tick)
system.cpu.l2cache.ReadSharedReq.mshrMissLatency::total   1519146000                       # number of ReadSharedReq MSHR miss ticks (Tick)
system.cpu.l2cache.ReadSharedReq.mshrMissRate::switch_cpus.data     0.579311                       # mshr miss rate for ReadSharedReq accesses (Ratio)
system.cpu.l2cache.ReadSharedReq.mshrMissRate::total     0.579311                       # mshr miss rate for ReadSharedReq accesses (Ratio)
system.cpu.l2cache.ReadSharedReq.avgMshrMissLatency::switch_cpus.data 62606.470225                       # average ReadSharedReq mshr miss latency ((Tick/Count))
system.cpu.l2cache.ReadSharedReq.avgMshrMissLatency::total 62606.470225                       # average ReadSharedReq mshr miss latency ((Tick/Count))
system.cpu.l2cache.UpgradeReq.hits::switch_cpus.data         3929                       # number of UpgradeReq hits (Count)
system.cpu.l2cache.UpgradeReq.hits::total         3929                       # number of UpgradeReq hits (Count)
system.cpu.l2cache.UpgradeReq.misses::switch_cpus.data           80                       # number of UpgradeReq misses (Count)
system.cpu.l2cache.UpgradeReq.misses::total           80                       # number of UpgradeReq misses (Count)
system.cpu.l2cache.UpgradeReq.missLatency::switch_cpus.data      2247500                       # number of UpgradeReq miss ticks (Tick)
system.cpu.l2cache.UpgradeReq.missLatency::total      2247500                       # number of UpgradeReq miss ticks (Tick)
system.cpu.l2cache.UpgradeReq.accesses::switch_cpus.data         4009                       # number of UpgradeReq accesses(hits+misses) (Count)
system.cpu.l2cache.UpgradeReq.accesses::total         4009                       # number of UpgradeReq accesses(hits+misses) (Count)
system.cpu.l2cache.UpgradeReq.missRate::switch_cpus.data     0.019955                       # miss rate for UpgradeReq accesses (Ratio)
system.cpu.l2cache.UpgradeReq.missRate::total     0.019955                       # miss rate for UpgradeReq accesses (Ratio)
system.cpu.l2cache.UpgradeReq.avgMissLatency::switch_cpus.data 28093.750000                       # average UpgradeReq miss latency ((Tick/Count))
system.cpu.l2cache.UpgradeReq.avgMissLatency::total 28093.750000                       # average UpgradeReq miss latency ((Tick/Count))
system.cpu.l2cache.UpgradeReq.mshrMisses::switch_cpus.data           80                       # number of UpgradeReq MSHR misses (Count)
system.cpu.l2cache.UpgradeReq.mshrMisses::total           80                       # number of UpgradeReq MSHR misses (Count)
system.cpu.l2cache.UpgradeReq.mshrMissLatency::switch_cpus.data      3494500                       # number of UpgradeReq MSHR miss ticks (Tick)
system.cpu.l2cache.UpgradeReq.mshrMissLatency::total      3494500                       # number of UpgradeReq MSHR miss ticks (Tick)
system.cpu.l2cache.UpgradeReq.mshrMissRate::switch_cpus.data     0.019955                       # mshr miss rate for UpgradeReq accesses (Ratio)
system.cpu.l2cache.UpgradeReq.mshrMissRate::total     0.019955                       # mshr miss rate for UpgradeReq accesses (Ratio)
system.cpu.l2cache.UpgradeReq.avgMshrMissLatency::switch_cpus.data 43681.250000                       # average UpgradeReq mshr miss latency ((Tick/Count))
system.cpu.l2cache.UpgradeReq.avgMshrMissLatency::total 43681.250000                       # average UpgradeReq mshr miss latency ((Tick/Count))
system.cpu.l2cache.WriteReq.mshrUncacheable::switch_cpus.data          852                       # number of WriteReq MSHR uncacheable (Count)
system.cpu.l2cache.WriteReq.mshrUncacheable::total          852                       # number of WriteReq MSHR uncacheable (Count)
system.cpu.l2cache.WritebackClean.hits::writebacks        91146                       # number of WritebackClean hits (Count)
system.cpu.l2cache.WritebackClean.hits::total        91146                       # number of WritebackClean hits (Count)
system.cpu.l2cache.WritebackClean.accesses::writebacks        91146                       # number of WritebackClean accesses(hits+misses) (Count)
system.cpu.l2cache.WritebackClean.accesses::total        91146                       # number of WritebackClean accesses(hits+misses) (Count)
system.cpu.l2cache.WritebackDirty.hits::writebacks        36706                       # number of WritebackDirty hits (Count)
system.cpu.l2cache.WritebackDirty.hits::total        36706                       # number of WritebackDirty hits (Count)
system.cpu.l2cache.WritebackDirty.accesses::writebacks        36706                       # number of WritebackDirty accesses(hits+misses) (Count)
system.cpu.l2cache.WritebackDirty.accesses::total        36706                       # number of WritebackDirty accesses(hits+misses) (Count)
system.cpu.l2cache.power_state.pwrStateResidencyTicks::UNDEFINED 3959187068000                       # Cumulative time (in ticks) in various power states (Tick)
system.cpu.l2cache.tags.tagsInUse           13.900160                       # Average ticks per tags in use ((Tick/Count))
system.cpu.l2cache.tags.totalRefs              313421                       # Total number of references to valid blocks. (Count)
system.cpu.l2cache.tags.sampledRefs             70014                       # Sample count of references to valid blocks. (Count)
system.cpu.l2cache.tags.avgRefs              4.476548                       # Average number of references to valid blocks. ((Count/Count))
system.cpu.l2cache.tags.warmupTick       2502044908000                       # The tick when the warmup percentage was hit. (Tick)
system.cpu.l2cache.tags.occupancies::writebacks     1.169900                       # Average occupied blocks per tick, per requestor ((Count/Tick))
system.cpu.l2cache.tags.occupancies::switch_cpus.mmu.dtb_walker     0.188946                       # Average occupied blocks per tick, per requestor ((Count/Tick))
system.cpu.l2cache.tags.occupancies::switch_cpus.mmu.itb_walker     0.037781                       # Average occupied blocks per tick, per requestor ((Count/Tick))
system.cpu.l2cache.tags.occupancies::switch_cpus.inst     6.496176                       # Average occupied blocks per tick, per requestor ((Count/Tick))
system.cpu.l2cache.tags.occupancies::switch_cpus.data     6.007356                       # Average occupied blocks per tick, per requestor ((Count/Tick))
system.cpu.l2cache.tags.avgOccs::writebacks     0.000143                       # Average percentage of cache occupancy ((Ratio/Tick))
system.cpu.l2cache.tags.avgOccs::switch_cpus.mmu.dtb_walker     0.000023                       # Average percentage of cache occupancy ((Ratio/Tick))
system.cpu.l2cache.tags.avgOccs::switch_cpus.mmu.itb_walker     0.000005                       # Average percentage of cache occupancy ((Ratio/Tick))
system.cpu.l2cache.tags.avgOccs::switch_cpus.inst     0.000793                       # Average percentage of cache occupancy ((Ratio/Tick))
system.cpu.l2cache.tags.avgOccs::switch_cpus.data     0.000733                       # Average percentage of cache occupancy ((Ratio/Tick))
system.cpu.l2cache.tags.avgOccs::total       0.001697                       # Average percentage of cache occupancy ((Ratio/Tick))
system.cpu.l2cache.tags.tagAccesses           5168126                       # Number of tag accesses (Count)
system.cpu.l2cache.tags.dataAccesses          5168126                       # Number of data accesses (Count)
[...]
system.switch_cpus.mmu.itb_walker.walkServiceTime::393216-458751            3      0.35%     99.88% # Table walker service (enqueue to completion) latency (Tick)
system.switch_cpus.mmu.itb_walker.walkServiceTime::720896-786431            1      0.12%    100.00% # Table walker service (enqueue to completion) latency (Tick)
system.switch_cpus.mmu.itb_walker.walkServiceTime::total          862                       # Table walker service (enqueue to completion) latency (Tick)
system.switch_cpus.mmu.itb_walker.pendingWalks::samples   3439965932                       # Table walker pending requests distribution (Tick)
system.switch_cpus.mmu.itb_walker.pendingWalks::mean     1.404778                       # Table walker pending requests distribution (Tick)
system.switch_cpus.mmu.itb_walker.pendingWalks::0  -1391854068    -40.46%    -40.46% # Table walker pending requests distribution (Tick)
system.switch_cpus.mmu.itb_walker.pendingWalks::1   4831263500    140.45%     99.98% # Table walker pending requests distribution (Tick)
system.switch_cpus.mmu.itb_walker.pendingWalks::2       543500      0.02%    100.00% # Table walker pending requests distribution (Tick)
system.switch_cpus.mmu.itb_walker.pendingWalks::3        13000      0.00%    100.00% # Table walker pending requests distribution (Tick)
system.switch_cpus.mmu.itb_walker.pendingWalks::total   3439965932                       # Table walker pending requests distribution (Tick)
system.switch_cpus.mmu.itb_walker.pageSizes::4KiB          723     97.44%     97.44% # Table walker page sizes translated (Count)
system.switch_cpus.mmu.itb_walker.pageSizes::2MiB           19      2.56%    100.00% # Table walker page sizes translated (Count)
system.switch_cpus.mmu.itb_walker.pageSizes::total          742                       # Table walker page sizes translated (Count)
system.switch_cpus.mmu.itb_walker.requestOrigin_Requested::Data            0                       # Table walker requests started/completed, data/inst (Count)
system.switch_cpus.mmu.itb_walker.requestOrigin_Requested::Inst         1207                       # Table walker requests started/completed, data/inst (Count)
system.switch_cpus.mmu.itb_walker.requestOrigin_Requested::total         1207                       # Table walker requests started/completed, data/inst (Count)
system.switch_cpus.mmu.itb_walker.requestOrigin_Completed::Data            0                       # Table walker requests started/completed, data/inst (Count)
system.switch_cpus.mmu.itb_walker.requestOrigin_Completed::Inst          742                       # Table walker requests started/completed, data/inst (Count)
system.switch_cpus.mmu.itb_walker.requestOrigin_Completed::total          742                       # Table walker requests started/completed, data/inst (Count)
system.switch_cpus.mmu.itb_walker.requestOrigin::total         1949                       # Table walker requests started/completed, data/inst (Count)
system.switch_cpus.mmu.itb_walker.power_state.pwrStateResidencyTicks::UNDEFINED 3959187068000                       # Cumulative time (in ticks) in various power states (Tick)
system.switch_cpus.mmu.l2_shared.partialHits        11972                       # partial translation hits (Count)
system.switch_cpus.mmu.l2_shared.instHits         2425                       # Inst hits (Count)
system.switch_cpus.mmu.l2_shared.instMisses           53                       # Inst misses (Count)
system.switch_cpus.mmu.l2_shared.readHits        11919                       # Read hits (Count)
system.switch_cpus.mmu.l2_shared.readMisses         8456                       # Read misses (Count)
system.switch_cpus.mmu.l2_shared.writeHits         5460                       # Write hits (Count)
system.switch_cpus.mmu.l2_shared.writeMisses         1996                       # Write misses (Count)
system.switch_cpus.mmu.l2_shared.inserts         3709                       # Number of times an entry is inserted into the TLB (Count)
system.switch_cpus.mmu.l2_shared.flushTlb            2                       # Number of times complete TLB was flushed (Count)
system.switch_cpus.mmu.l2_shared.flushTlbMva            0                       # Number of times TLB was flushed by MVA (Count)
system.switch_cpus.mmu.l2_shared.flushTlbMvaAsid          245                       # Number of times TLB was flushed by MVA & ASID (Count)
system.switch_cpus.mmu.l2_shared.flushTlbAsid            6                       # Number of times TLB was flushed by ASID (Count)
system.switch_cpus.mmu.l2_shared.flushedEntries         3489                       # Number of entries that have been flushed from TLB (Count)
system.switch_cpus.mmu.l2_shared.readAccesses        20375                       # Read accesses (Count)
system.switch_cpus.mmu.l2_shared.writeAccesses         7456                       # Write accesses (Count)
system.switch_cpus.mmu.l2_shared.instAccesses         2478                       # Inst accesses (Count)
system.switch_cpus.mmu.l2_shared.hits           19804                       # Total TLB (inst and data) hits (Count)
system.switch_cpus.mmu.l2_shared.misses         10505                       # Total TLB (inst and data) misses (Count)
system.switch_cpus.mmu.l2_shared.accesses        30309                       # Total TLB (inst and data) accesses (Count)
system.switch_cpus.mmu.stage2_dtb.readHits            0                       # Read hits (Count)
system.switch_cpus.mmu.stage2_dtb.readMisses            0                       # Read misses (Count)
system.switch_cpus.mmu.stage2_dtb.writeHits            0                       # Write hits (Count)
system.switch_cpus.mmu.stage2_dtb.writeMisses            0                       # Write misses (Count)
system.switch_cpus.mmu.stage2_dtb.inserts            0                       # Number of times an entry is inserted into the TLB (Count)
system.switch_cpus.mmu.stage2_dtb.flushTlb            2                       # Number of times complete TLB was flushed (Count)
system.switch_cpus.mmu.stage2_dtb.flushTlbMva            0                       # Number of times TLB was flushed by MVA (Count)
system.switch_cpus.mmu.stage2_dtb.flushTlbMvaAsid            0                       # Number of times TLB was flushed by MVA & ASID (Count)
system.switch_cpus.mmu.stage2_dtb.flushTlbAsid            0                       # Number of times TLB was flushed by ASID (Count)
system.switch_cpus.mmu.stage2_dtb.flushedEntries            0                       # Number of entries that have been flushed from TLB (Count)
system.switch_cpus.mmu.stage2_dtb.readAccesses            0                       # Read accesses (Count)
system.switch_cpus.mmu.stage2_dtb.writeAccesses            0                       # Write accesses (Count)
system.switch_cpus.mmu.stage2_dtb.hits              0                       # Total TLB (inst and data) hits (Count)
system.switch_cpus.mmu.stage2_dtb.misses            0                       # Total TLB (inst and data) misses (Count)
system.switch_cpus.mmu.stage2_dtb.accesses            0                       # Total TLB (inst and data) accesses (Count)
system.switch_cpus.mmu.stage2_dtb_walker.walks            0                       # Table walker walks requested (Count)
system.switch_cpus.mmu.stage2_dtb_walker.requestOrigin_Requested::Data            0                       # Table walker requests started/completed, data/inst (Count)
system.switch_cpus.mmu.stage2_dtb_walker.requestOrigin_Requested::Inst            0                       # Table walker requests started/completed, data/inst (Count)
system.switch_cpus.mmu.stage2_dtb_walker.requestOrigin_Requested::total            0                       # Table walker requests started/completed, data/inst (Count)
system.switch_cpus.mmu.stage2_dtb_walker.requestOrigin_Completed::Data            0                       # Table walker requests started/completed, data/inst (Count)
system.switch_cpus.mmu.stage2_dtb_walker.requestOrigin_Completed::Inst            0                       # Table walker requests started/completed, data/inst (Count)
system.switch_cpus.mmu.stage2_dtb_walker.requestOrigin_Completed::total            0                       # Table walker requests started/completed, data/inst (Count)
system.switch_cpus.mmu.stage2_dtb_walker.requestOrigin::total            0                       # Table walker requests started/completed, data/inst (Count)
system.switch_cpus.mmu.stage2_dtb_walker.power_state.pwrStateResidencyTicks::UNDEFINED 3959187068000                       # Cumulative time (in ticks) in various power states (Tick)
system.switch_cpus.mmu.stage2_itb.instHits            0                       # Inst hits (Count)
system.switch_cpus.mmu.stage2_itb.instMisses            0                       # Inst misses (Count)
system.switch_cpus.mmu.stage2_itb.inserts            0                       # Number of times an entry is inserted into the TLB (Count)
system.switch_cpus.mmu.stage2_itb.flushTlb            2                       # Number of times complete TLB was flushed (Count)
system.switch_cpus.mmu.stage2_itb.flushTlbMva            0                       # Number of times TLB was flushed by MVA (Count)
system.switch_cpus.mmu.stage2_itb.flushTlbMvaAsid            0                       # Number of times TLB was flushed by MVA & ASID (Count)
system.switch_cpus.mmu.stage2_itb.flushTlbAsid            0                       # Number of times TLB was flushed by ASID (Count)
system.switch_cpus.mmu.stage2_itb.flushedEntries            0                       # Number of entries that have been flushed from TLB (Count)
system.switch_cpus.mmu.stage2_itb.instAccesses            0                       # Inst accesses (Count)
system.switch_cpus.mmu.stage2_itb.hits              0                       # Total TLB (inst and data) hits (Count)
system.switch_cpus.mmu.stage2_itb.misses            0                       # Total TLB (inst and data) misses (Count)
system.switch_cpus.mmu.stage2_itb.accesses            0                       # Total TLB (inst and data) accesses (Count)
system.switch_cpus.mmu.stage2_itb_walker.walks            0                       # Table walker walks requested (Count)
system.switch_cpus.mmu.stage2_itb_walker.requestOrigin_Requested::Data            0                       # Table walker requests started/completed, data/inst (Count)
system.switch_cpus.mmu.stage2_itb_walker.requestOrigin_Requested::Inst            0                       # Table walker requests started/completed, data/inst (Count)
system.switch_cpus.mmu.stage2_itb_walker.requestOrigin_Requested::total            0                       # Table walker requests started/completed, data/inst (Count)
system.switch_cpus.mmu.stage2_itb_walker.requestOrigin_Completed::Data            0                       # Table walker requests started/completed, data/inst (Count)
system.switch_cpus.mmu.stage2_itb_walker.requestOrigin_Completed::Inst            0                       # Table walker requests started/completed, data/inst (Count)
system.switch_cpus.mmu.stage2_itb_walker.requestOrigin_Completed::total            0                       # Table walker requests started/completed, data/inst (Count)
system.switch_cpus.mmu.stage2_itb_walker.requestOrigin::total            0                       # Table walker requests started/completed, data/inst (Count)
system.switch_cpus.mmu.stage2_itb_walker.power_state.pwrStateResidencyTicks::UNDEFINED 3959187068000                       # Cumulative time (in ticks) in various power states (Tick)
system.switch_cpus.power_state.pwrStateResidencyTicks::OFF 3959187068000                       # Cumulative time (in ticks) in various power states (Tick)
system.switch_cpus.rename.squashCycles          84675                       # Number of cycles rename is squashing (Cycle)
system.switch_cpus.rename.idleCycles          2460761                       # Number of cycles rename is idle (Cycle)
system.switch_cpus.rename.blockCycles         1252646                       # Number of cycles rename is blocking (Cycle)
system.switch_cpus.rename.serializeStallCycles      3212822                       # count of cycles rename stalled for serializing inst (Cycle)
system.switch_cpus.rename.runCycles           1554525                       # Number of cycles rename is running (Cycle)
system.switch_cpus.rename.unblockCycles       1464697                       # Number of cycles rename is unblocking (Cycle)
system.switch_cpus.rename.renamedInsts        9669900                       # Number of instructions processed by rename (Count)
system.switch_cpus.rename.ROBFullEvents          4732                       # Number of times rename has blocked due to ROB full (Count)
system.switch_cpus.rename.IQFullEvents         111140                       # Number of times rename has blocked due to IQ full (Count)
system.switch_cpus.rename.LQFullEvents         811556                       # Number of times rename has blocked due to LQ full (Count)
system.switch_cpus.rename.SQFullEvents         371060                       # Number of times rename has blocked due to SQ full (Count)
system.switch_cpus.rename.renamedOperands      9429817                       # Number of destination operands rename has renamed (Count)
system.switch_cpus.rename.lookups            14179712                       # Number of register rename lookups that rename has made (Count)
system.switch_cpus.rename.intLookups         10473809                       # Number of integer rename lookups (Count)
system.switch_cpus.rename.vecLookups            53609                       # Number of vector rename lookups (Count)
system.switch_cpus.rename.committedMaps       7648537                       # Number of HB maps that are committed (Count)
system.switch_cpus.rename.undoneMaps          1781280                       # Number of HB maps that are undone due to squashing (Count)
system.switch_cpus.rename.serializing          150049                       # count of serializing insts renamed (Count)
system.switch_cpus.rename.tempSerializing        19440                       # count of temporary serializing insts renamed (Count)
system.switch_cpus.rename.skidInsts           1296734                       # count of insts added to the skid buffer (Count)
system.switch_cpus.rob.reads                 18748838                       # The number of ROB reads (Count)
system.switch_cpus.rob.writes                19074967                       # The number of ROB writes (Count)
system.switch_cpus.thread_0.numInsts          6632537                       # Number of Instructions committed (Count)
system.switch_cpus.thread_0.numOps            7737722                       # Number of Ops committed (Count)
system.switch_cpus.thread_0.numMemRefs              0                       # Number of Memory References (Count)
system.tollcbus.transDist::ReadReq             180925                       # Transaction distribution (Count)
system.tollcbus.transDist::ReadResp            233910                       # Transaction distribution (Count)
system.tollcbus.transDist::WriteReq             25902                       # Transaction distribution (Count)
system.tollcbus.transDist::WriteResp            25902                       # Transaction distribution (Count)
system.tollcbus.transDist::WritebackDirty        22194                       # Transaction distribution (Count)
system.tollcbus.transDist::CleanEvict           41402                       # Transaction distribution (Count)
system.tollcbus.transDist::UpgradeReq              80                       # Transaction distribution (Count)
system.tollcbus.transDist::UpgradeResp             80                       # Transaction distribution (Count)
system.tollcbus.transDist::ReadExReq            10102                       # Transaction distribution (Count)
system.tollcbus.transDist::ReadExResp           10102                       # Transaction distribution (Count)
system.tollcbus.transDist::ReadSharedReq        52985                       # Transaction distribution (Count)
system.tollcbus.transDist::InvalidateReq         4899                       # Transaction distribution (Count)
system.tollcbus.transDist::InvalidateResp         4899                       # Transaction distribution (Count)
system.tollcbus.pktCount_system.cpu.l2cache.mem_side_port::system.llc.cpu_side_port       609533                       # Packet count per connected requestor and responder (Count)
system.tollcbus.pktSize_system.cpu.l2cache.mem_side_port::system.llc.cpu_side_port      6115569                       # Cumulative packet size per connected requestor and responder (Byte)
system.tollcbus.snoops                           3849                       # Total snoops (Count)
system.tollcbus.snoopTraffic                    97088                       # Total snoop traffic (Byte)
system.tollcbus.snoopFanout::samples            75720                       # Request fanout histogram (Count)
system.tollcbus.snoopFanout::mean            0.002853                       # Request fanout histogram (Count)
system.tollcbus.snoopFanout::stdev           0.053334                       # Request fanout histogram (Count)
system.tollcbus.snoopFanout::underflows             0      0.00%      0.00% # Request fanout histogram (Count)
system.tollcbus.snoopFanout::0                  75504     99.71%     99.71% # Request fanout histogram (Count)
system.tollcbus.snoopFanout::1                    216      0.29%    100.00% # Request fanout histogram (Count)
system.tollcbus.snoopFanout::overflows              0      0.00%    100.00% # Request fanout histogram (Count)
system.tollcbus.snoopFanout::min_value              0                       # Request fanout histogram (Count)
system.tollcbus.snoopFanout::max_value              1                       # Request fanout histogram (Count)
system.tollcbus.snoopFanout::total              75720                       # Request fanout histogram (Count)
system.tollcbus.power_state.pwrStateResidencyTicks::UNDEFINED 3959187068000                       # Cumulative time (in ticks) in various power states (Tick)
system.tollcbus.reqLayer0.occupancy          86913042                       # Layer occupancy (ticks) (Tick)
system.tollcbus.reqLayer0.utilization             0.0                       # Layer utilization (Ratio)
system.tollcbus.respLayer0.occupancy        100499000                       # Layer occupancy (ticks) (Tick)
system.tollcbus.respLayer0.utilization            0.0                       # Layer utilization (Ratio)
system.tollcbus.snoop_filter.totRequests       127813                       # Total number of requests made to the snoop filter. (Count)
system.tollcbus.snoop_filter.hitSingleRequests        59828                       # Number of requests hitting in the snoop filter with a single holder of the requested data. (Count)
system.tollcbus.snoop_filter.hitMultiRequests            0                       # Number of requests hitting in the snoop filter with multiple (>1) holders of the requested data. (Count)
system.tollcbus.snoop_filter.totSnoops            216                       # Total number of snoops made to the snoop filter. (Count)
system.tollcbus.snoop_filter.hitSingleSnoops          216                       # Number of snoops hitting in the snoop filter with a single holder of the requested data. (Count)
system.tollcbus.snoop_filter.hitMultiSnoops            0                       # Number of snoops hitting in the snoop filter with multiple (>1) holders of the requested data. (Count)
system.voltage_domain.voltage                       1                       # Voltage in Volts (Volt)
system.workload.inst.arm                            0                       # number of arm instructions executed (Count)
system.workload.inst.quiesce                        0                       # number of quiesce instructions executed (Count)

---------- End Simulation Statistics   ----------
